40
Properties=species:S:1:pos:R:3 #=T CELL(abcABC):=T 1.889726e+02=T 90.00000=T Traj:=T positionsangstrom=T Step:=T 0=T Bead:=T pbc="F F F"
C      -42.58010000     -35.14530000     -72.62290000
C      -42.87580000     -35.23790000     -71.25360000
C      -42.54000000     -34.22670000     -70.35570000
C      -42.06020000     -32.94730000     -70.84590000
C      -42.02940000     -32.79800000     -72.21340000
C      -42.29680000     -33.87360000     -73.07790000
H      -42.78160000     -36.01020000     -73.36920000
H      -42.67460000     -34.35110000     -69.31670000
H      -41.80330000     -31.88470000     -72.77130000
H      -42.11410000     -33.72390000     -74.15150000
C      -41.58070000     -31.87760000     -69.90030000
H      -40.84540000     -31.17040000     -70.35450000
H      -41.00710000     -32.30790000     -69.11510000
C      -43.20060000     -36.59000000     -70.62720000
H      -43.15480000     -37.33400000     -71.44460000
H      -42.37060000     -36.89660000     -69.89640000
S      -42.97900000     -31.03680000     -69.03400000
S      -44.79700000     -36.64620000     -69.79070000
C      -44.32070000     -30.97010000     -70.34380000
H      -44.90370000     -30.10430000     -69.92770000
H      -43.78100000     -30.61660000     -71.24870000
C      -46.07700000     -35.97070000     -70.90650000
H      -46.56920000     -36.71320000     -71.49160000
H      -45.58980000     -35.40270000     -71.67360000
C      -47.11590000     -35.09030000     -70.16070000
H      -47.86230000     -35.72610000     -69.68620000
H      -46.60740000     -34.50520000     -69.47600000
C      -45.08140000     -32.18630000     -70.60620000
H      -45.44030000     -32.52390000     -69.66880000
H      -44.41300000     -33.00260000     -70.82030000
C      -46.18040000     -32.04530000     -71.61160000
C      -46.43790000     -30.84210000     -72.22250000
C      -47.18890000     -33.01390000     -71.82020000
H      -45.87190000     -29.96110000     -72.07660000
C      -48.12440000     -32.52930000     -72.75350000
C      -47.74200000     -34.25220000     -71.20040000
C      -49.02480000     -34.54830000     -71.62500000
S      -47.86550000     -30.90870000     -73.27030000
S      -49.55240000     -33.49900000     -72.99290000
H      -49.68770000     -35.29550000     -71.20270000
