40
Properties=species:S:1:pos:R:3 #=T CELL(abcABC):=T 1.889726e+02=T 90.00000=T Traj:=T positionsangstrom=T Step:=T 0=T Bead:=T pbc="F F F"
C      -48.75190000     -34.56880000     -67.89600000
C      -47.58110000     -34.76020000     -68.61690000
C      -46.66080000     -33.66780000     -68.81810000
C      -46.97860000     -32.37940000     -68.38210000
C      -48.19640000     -32.26440000     -67.67950000
C      -49.08240000     -33.26640000     -67.38050000
H      -49.45540000     -35.37890000     -67.75400000
H      -45.68490000     -33.87070000     -69.25180000
H      -48.39750000     -31.23360000     -67.25260000
H      -50.04880000     -33.04660000     -66.88370000
C      -46.10330000     -31.18200000     -68.51030000
H      -45.01940000     -31.45250000     -68.48850000
H      -46.19490000     -30.45540000     -67.66610000
C      -47.19130000     -36.04110000     -69.36030000
H      -47.63280000     -36.94140000     -68.93060000
H      -47.52990000     -36.07540000     -70.48540000
S      -46.40740000     -30.01400000     -69.99260000
S      -45.38110000     -36.56100000     -69.39030000
C      -45.10240000     -30.34010000     -71.25000000
H      -45.36940000     -29.66010000     -72.06620000
H      -44.12170000     -30.13760000     -70.77310000
C      -44.37410000     -35.60890000     -70.62170000
H      -43.51540000     -36.33990000     -70.84070000
H      -43.90850000     -34.73600000     -70.21620000
C      -45.19880000     -35.19670000     -71.79780000
H      -45.96120000     -35.92970000     -72.08350000
H      -45.69740000     -34.28720000     -71.54880000
C      -45.14610000     -31.75320000     -71.66040000
H      -46.18730000     -32.14490000     -71.76760000
H      -44.74670000     -32.42090000     -70.90270000
C      -44.45360000     -32.01910000     -73.03200000
C      -43.97050000     -31.08870000     -73.84250000
C      -44.10070000     -33.38400000     -73.37540000
H      -44.06880000     -30.03250000     -73.72060000
C      -43.28880000     -33.38370000     -74.53930000
C      -44.26750000     -34.77380000     -72.86070000
C      -43.67540000     -35.73530000     -73.65030000
S      -43.02380000     -31.77160000     -75.14190000
S      -42.82930000     -34.97310000     -75.06260000
H      -43.68410000     -36.83420000     -73.48140000
