40
Properties=species:S:1:pos:R:3 #=T CELL(abcABC):=T 1.889726e+02=T 90.00000=T Traj:=T positionsangstrom=T Step:=T 0=T Bead:=T pbc="F F F"
C      -47.23940000     -36.59650000     -70.66260000
C      -46.39260000     -35.72840000     -71.44190000
C      -45.45730000     -34.89780000     -70.79590000
C      -45.30060000     -34.86970000     -69.44100000
C      -46.14510000     -35.76080000     -68.62440000
C      -47.08080000     -36.54630000     -69.25630000
H      -47.73470000     -37.40460000     -71.17250000
H      -44.81380000     -34.30250000     -71.45310000
H      -46.06710000     -35.76130000     -67.53340000
H      -47.67290000     -37.20990000     -68.68260000
C      -44.35810000     -33.92330000     -68.77790000
H      -43.61810000     -33.64530000     -69.58570000
H      -43.64960000     -34.32830000     -68.07610000
C      -46.55980000     -35.84710000     -72.90870000
H      -45.65190000     -35.55610000     -73.43870000
H      -46.79930000     -36.83670000     -73.17330000
S      -45.05890000     -32.37690000     -67.98780000
S      -47.98690000     -34.76850000     -73.60110000
C      -46.33930000     -31.83800000     -69.15700000
H      -46.80000000     -32.75660000     -69.63070000
H      -47.16270000     -31.41970000     -68.59160000
C      -47.94890000     -33.28320000     -72.47950000
H      -47.47380000     -33.44380000     -71.48240000
H      -48.97250000     -32.96930000     -72.29340000
C      -47.07200000     -32.16410000     -73.18930000
H      -47.30920000     -32.24600000     -74.20610000
H      -47.25290000     -31.15580000     -72.81110000
C      -45.85170000     -30.77080000     -70.15780000
H      -45.63500000     -29.87430000     -69.59050000
H      -46.58400000     -30.45370000     -70.86990000
C      -44.60290000     -31.23840000     -70.83480000
C      -43.32200000     -31.05260000     -70.25200000
C      -44.61750000     -31.99090000     -72.07520000
H      -43.08740000     -30.34900000     -69.50910000
C      -43.32420000     -32.32850000     -72.38530000
C      -45.55640000     -32.32250000     -73.10500000
C      -44.89560000     -32.98730000     -74.06630000
S      -42.08740000     -31.92300000     -71.26000000
S      -43.14320000     -33.16200000     -73.95720000
H      -45.28710000     -33.35650000     -74.98620000
