40
Properties=species:S:1:pos:R:3 #=T CELL(abcABC):=T 1.889726e+02=T 90.00000=T Traj:=T positionsangstrom=T Step:=T 0=T Bead:=T pbc="F F F"
C      -49.35280000     -32.41570000     -70.06740000
C      -48.16260000     -32.51870000     -69.35640000
C      -47.22260000     -31.46610000     -69.36400000
C      -47.33240000     -30.41970000     -70.28920000
C      -48.47600000     -30.33590000     -71.07990000
C      -49.50100000     -31.26940000     -70.88040000
H      -50.06120000     -33.24080000     -69.93040000
H      -46.33250000     -31.53930000     -68.72860000
H      -48.52810000     -29.54600000     -71.81830000
H      -50.37910000     -31.22940000     -71.55640000
C      -46.20950000     -29.40150000     -70.40140000
H      -45.63740000     -29.44690000     -69.48900000
H      -46.64370000     -28.38050000     -70.48260000
C      -47.85340000     -33.72210000     -68.39790000
H      -47.03460000     -33.41150000     -67.75540000
H      -48.65130000     -33.88070000     -67.68070000
S      -45.02790000     -29.61460000     -71.91970000
S      -47.74130000     -35.42780000     -69.17660000
C      -44.82930000     -31.40250000     -72.37560000
H      -45.79110000     -31.82830000     -72.56330000
H      -44.28710000     -31.32630000     -73.30540000
C      -46.00620000     -35.45050000     -69.94330000
H      -45.64480000     -36.53640000     -69.77550000
H      -45.28220000     -34.77030000     -69.45460000
C      -46.03240000     -35.11230000     -71.43270000
H      -46.79920000     -35.75820000     -71.85770000
H      -46.41960000     -34.05760000     -71.57490000
C      -44.12370000     -32.19380000     -71.28510000
H      -44.94140000     -32.74200000     -70.72000000
H      -43.50650000     -31.55460000     -70.62320000
C      -43.23490000     -33.24360000     -71.93270000
C      -41.93610000     -32.94740000     -72.26980000
C      -43.58060000     -34.62690000     -72.25550000
H      -41.35620000     -32.09390000     -72.04530000
C      -42.54630000     -35.34380000     -72.77810000
C      -44.77330000     -35.42700000     -72.16890000
C      -44.60620000     -36.69960000     -72.64520000
S      -41.09790000     -34.39830000     -72.83480000
S      -42.98220000     -37.03980000     -73.28740000
H      -45.40650000     -37.45930000     -72.79970000
