40
Properties=species:S:1:pos:R:3 #=T CELL(abcABC):=T 1.889726e+02=T 90.00000=T Traj:=T positionsangstrom=T Step:=T 0=T Bead:=T pbc="F F F"
C      -47.07500000     -33.41120000     -68.99300000
C      -46.32630000     -32.25280000     -68.86510000
C      -45.02850000     -32.21440000     -68.32740000
C      -44.39480000     -33.41690000     -68.11300000
C      -45.08250000     -34.61130000     -68.29060000
C      -46.41620000     -34.60950000     -68.67270000
H      -48.09400000     -33.31160000     -69.34560000
H      -44.40860000     -31.33870000     -68.38340000
H      -44.71740000     -35.54130000     -68.07880000
H      -46.96620000     -35.54400000     -68.56160000
C      -42.91540000     -33.51320000     -67.88320000
H      -42.72810000     -34.56250000     -67.57420000
H      -42.55480000     -32.87820000     -67.15950000
C      -46.96290000     -30.88620000     -69.21220000
H      -47.81450000     -30.69000000     -68.61040000
H      -46.18560000     -30.10230000     -69.12140000
S      -42.02590000     -33.32320000     -69.50190000
S      -47.62910000     -30.68950000     -70.96160000
C      -42.89300000     -34.55930000     -70.61560000
H      -42.25950000     -35.56590000     -70.55240000
H      -43.87140000     -34.88740000     -70.30960000
C      -46.06610000     -30.37190000     -71.87890000
H      -45.68650000     -29.51220000     -71.35000000
H      -46.28590000     -29.93370000     -72.87610000
C      -45.05550000     -31.53200000     -72.07290000
H      -44.21160000     -31.04710000     -72.61640000
H      -44.69970000     -31.89790000     -71.12070000
C      -42.72590000     -34.03470000     -72.09680000
H      -41.84480000     -34.48570000     -72.54170000
H      -42.65530000     -32.98110000     -72.10240000
C      -43.89120000     -34.54670000     -72.88850000
C      -43.90500000     -35.85920000     -73.35950000
C      -45.14120000     -33.85200000     -73.19990000
H      -43.16970000     -36.56500000     -73.13410000
C      -46.02090000     -34.70110000     -73.92240000
C      -45.73870000     -32.58850000     -72.88040000
C      -46.98450000     -32.51810000     -73.48940000
S      -45.38000000     -36.28790000     -74.19700000
S      -47.58820000     -34.00900000     -74.27980000
H      -47.62990000     -31.69240000     -73.53700000
