40
Properties=species:S:1:pos:R:3 #=T CELL(abcABC):=T 1.889726e+02=T 90.00000=T Traj:=T positionsangstrom=T Step:=T 0=T Bead:=T pbc="F F F"
C      -46.74280000     -37.04470000     -70.32200000
C      -46.03100000     -36.14770000     -71.18240000
C      -45.27540000     -35.09350000     -70.69460000
C      -45.21220000     -34.74170000     -69.36490000
C      -45.93040000     -35.56330000     -68.47160000
C      -46.70750000     -36.67690000     -68.95210000
H      -47.20110000     -37.93860000     -70.65700000
H      -44.68130000     -34.55700000     -71.46750000
H      -45.90330000     -35.25440000     -67.44860000
H      -47.24070000     -37.20760000     -68.20830000
C      -44.18910000     -33.73530000     -68.79220000
H      -43.42510000     -33.54110000     -69.60500000
H      -43.69150000     -34.14750000     -67.92220000
C      -46.05250000     -36.23420000     -72.67810000
H      -45.16010000     -35.69310000     -73.06550000
H      -46.19740000     -37.25020000     -73.23880000
S      -45.08370000     -32.20970000     -68.10770000
S      -47.60600000     -35.44870000     -73.40670000
C      -46.48390000     -31.90650000     -69.16810000
H      -46.61470000     -32.85800000     -69.75280000
H      -47.31190000     -31.77220000     -68.53460000
C      -47.78880000     -33.94400000     -72.39630000
H      -47.30490000     -34.16090000     -71.47540000
H      -48.84150000     -33.81320000     -72.27630000
C      -47.17020000     -32.67600000     -73.06660000
H      -47.47090000     -32.63740000     -74.07130000
H      -47.61330000     -31.84290000     -72.46600000
C      -46.29130000     -30.83770000     -70.27420000
H      -46.37850000     -29.79020000     -69.84000000
H      -47.11540000     -30.97840000     -70.92730000
C      -44.97310000     -30.98310000     -71.02150000
C      -43.80650000     -30.38430000     -70.71820000
C      -44.81670000     -31.94490000     -72.08830000
H      -43.67960000     -29.63490000     -69.85650000
C      -43.50290000     -32.02250000     -72.53560000
C      -45.69150000     -32.61180000     -73.01260000
C      -44.98740000     -33.18350000     -74.04790000
S      -42.50050000     -30.95840000     -71.67200000
S      -43.24690000     -32.90510000     -73.97100000
H      -45.52470000     -33.64460000     -74.91210000
