40
Properties=species:S:1:pos:R:3 #=T CELL(abcABC):=T 1.889726e+02=T 90.00000=T Traj:=T positionsangstrom=T Step:=T 0=T Bead:=T pbc="F F F"
C      -47.18030000     -33.12890000     -68.93760000
C      -46.31400000     -32.03650000     -68.90240000
C      -44.94440000     -32.23090000     -68.60490000
C      -44.47320000     -33.50340000     -68.15320000
C      -45.42950000     -34.55260000     -68.04120000
C      -46.78680000     -34.42770000     -68.53180000
H      -48.27100000     -32.97640000     -69.18160000
H      -44.30600000     -31.38800000     -68.64970000
H      -44.99690000     -35.52670000     -67.86270000
H      -47.45230000     -35.26180000     -68.69210000
C      -43.00620000     -33.66170000     -67.84560000
H      -42.76410000     -34.64500000     -67.41120000
H      -42.66060000     -32.79880000     -67.20920000
C      -46.90120000     -30.69880000     -69.27420000
H      -47.77970000     -30.39060000     -68.67090000
H      -46.14850000     -29.92380000     -69.05490000
S      -41.96590000     -33.37960000     -69.34870000
S      -47.51350000     -30.71170000     -70.97460000
C      -42.90800000     -34.43570000     -70.57810000
H      -42.51610000     -35.49230000     -70.36410000
H      -43.90030000     -34.28530000     -70.34070000
C      -45.99810000     -30.28090000     -71.95460000
H      -45.38170000     -29.51100000     -71.40440000
H      -46.25360000     -29.93740000     -72.98110000
C      -45.05650000     -31.49070000     -72.14870000
H      -44.27640000     -31.23980000     -72.83730000
H      -44.52410000     -31.80230000     -71.18850000
C      -42.81330000     -34.00380000     -72.07170000
H      -41.78060000     -34.21860000     -72.51810000
H      -42.80190000     -32.95750000     -72.11590000
C      -43.91130000     -34.59900000     -72.91380000
C      -43.83250000     -35.91110000     -73.42850000
C      -45.21410000     -34.00810000     -73.07620000
H      -42.96840000     -36.44730000     -73.48190000
C      -46.01550000     -34.81680000     -73.88800000
C      -45.74250000     -32.71220000     -72.83790000
C      -46.97690000     -32.58880000     -73.47050000
S      -45.29140000     -36.33020000     -74.29120000
S      -47.50370000     -34.09780000     -74.35030000
H      -47.60040000     -31.72960000     -73.45680000
