40
Properties=species:S:1:pos:R:3 #=T CELL(abcABC):=T 1.889726e+02=T 90.00000=T Traj:=T positionsangstrom=T Step:=T 0=T Bead:=T pbc="F F F"
C      -43.68260000     -34.15820000     -73.99980000
C      -44.34870000     -32.96510000     -74.17050000
C      -45.75770000     -32.98730000     -74.38160000
C      -46.41700000     -34.22240000     -74.42650000
C      -45.68540000     -35.39150000     -74.34720000
C      -44.32140000     -35.36910000     -74.18380000
H      -42.58890000     -34.01740000     -73.94550000
H      -46.27700000     -32.05900000     -74.42110000
H      -46.09380000     -36.36720000     -74.57680000
H      -43.80010000     -36.28380000     -74.09400000
C      -47.91980000     -34.28660000     -74.51060000
H      -48.18330000     -35.31040000     -74.31720000
H      -48.33720000     -34.12080000     -75.49720000
C      -43.63110000     -31.57400000     -74.23760000
H      -43.32960000     -31.33850000     -75.27740000
H      -44.43940000     -30.88130000     -73.90030000
S      -48.80500000     -33.18400000     -73.36570000
S      -42.25590000     -31.47810000     -73.11220000
C      -48.22340000     -33.93610000     -71.73660000
H      -49.08240000     -33.74180000     -71.07970000
H      -48.28400000     -35.00490000     -71.95560000
C      -42.87240000     -32.36480000     -71.55740000
H      -41.93230000     -32.49470000     -70.95720000
H      -43.44990000     -33.26510000     -71.79580000
C      -43.86530000     -31.54430000     -70.63230000
H      -43.37030000     -30.61510000     -70.24780000
H      -44.77470000     -31.14320000     -71.10260000
C      -46.90130000     -33.43200000     -71.22980000
H      -46.99740000     -32.31030000     -71.28170000
H      -46.02190000     -33.67690000     -71.79160000
C      -46.46510000     -33.83020000     -69.79110000
C      -47.20380000     -34.70830000     -69.04290000
C      -45.25620000     -33.35600000     -69.15660000
H      -48.21360000     -35.07060000     -69.38530000
C      -45.09570000     -33.87890000     -67.90310000
C      -44.17710000     -32.38550000     -69.44200000
C      -43.29200000     -32.32450000     -68.34060000
S      -46.51340000     -34.86060000     -67.39640000
S      -43.74390000     -33.36010000     -67.04050000
H      -42.42400000     -31.67030000     -68.26240000
