40
Properties=species:S:1:pos:R:3 #=T CELL(abcABC):=T 1.889726e+02=T 90.00000=T Traj:=T positionsangstrom=T Step:=T 0=T Bead:=T pbc="F F F"
C      -46.77530000     -36.56400000     -70.38330000
C      -45.87750000     -35.88690000     -71.17240000
C      -44.99960000     -34.97170000     -70.51130000
C      -44.96800000     -34.74170000     -69.10840000
C      -45.85920000     -35.58180000     -68.36200000
C      -46.80860000     -36.34200000     -69.00550000
H      -47.41850000     -37.27840000     -70.83860000
H      -44.51230000     -34.24110000     -71.18740000
H      -45.97360000     -35.38520000     -67.30210000
H      -47.59560000     -36.77060000     -68.41410000
C      -44.12790000     -33.60970000     -68.55840000
H      -43.45640000     -33.22500000     -69.26410000
H      -43.50730000     -33.96190000     -67.73500000
C      -45.93070000     -35.93010000     -72.67800000
H      -45.14790000     -35.49160000     -73.21850000
H      -45.91910000     -36.99590000     -72.92570000
S      -45.23560000     -32.16400000     -67.98730000
S      -47.51780000     -35.34680000     -73.42860000
C      -46.59260000     -31.99370000     -69.34310000
H      -46.86880000     -33.00970000     -69.71200000
H      -47.49940000     -31.83430000     -68.78300000
C      -47.87110000     -33.76640000     -72.51290000
H      -47.43900000     -33.81930000     -71.47560000
H      -49.01500000     -33.73510000     -72.36730000
C      -47.32750000     -32.57370000     -73.24010000
H      -47.59860000     -32.71710000     -74.29280000
H      -47.72470000     -31.60640000     -72.78650000
C      -46.29540000     -30.94080000     -70.29850000
H      -46.12420000     -29.95360000     -69.77430000
H      -47.07370000     -30.82210000     -71.04170000
C      -45.01560000     -31.26570000     -71.06130000
C      -43.83550000     -30.81930000     -70.59440000
C      -44.88520000     -32.04010000     -72.25010000
H      -43.73750000     -30.29140000     -69.66250000
C      -43.52240000     -32.24110000     -72.57530000
C      -45.77410000     -32.51430000     -73.23470000
C      -45.06080000     -33.06960000     -74.30940000
S      -42.38290000     -31.45550000     -71.44330000
S      -43.32730000     -32.94900000     -74.13350000
H      -45.40790000     -33.53920000     -75.27600000
