40
Properties=species:S:1:pos:R:3 #=T CELL(abcABC):=T 1.889726e+02=T 90.00000=T Traj:=T positionsangstrom=T Step:=T 0=T Bead:=T pbc="F F F"
C      -42.01840000     -35.35220000     -73.90580000
C      -42.98160000     -35.82640000     -73.01640000
C      -42.96850000     -35.30980000     -71.75310000
C      -41.98130000     -34.43490000     -71.31250000
C      -40.95290000     -33.97090000     -72.20320000
C      -41.00880000     -34.43840000     -73.51290000
H      -42.10730000     -35.66590000     -74.91640000
H      -43.70080000     -35.77180000     -71.09700000
H      -40.19580000     -33.23490000     -71.91660000
H      -40.22290000     -34.20720000     -74.24940000
C      -41.86180000     -34.13650000     -69.87390000
H      -40.77900000     -34.17340000     -69.59690000
H      -42.45570000     -34.87530000     -69.34600000
C      -43.88660000     -36.88010000     -73.51800000
H      -44.00200000     -36.75410000     -74.63860000
H      -43.43670000     -37.91320000     -73.42230000
S      -42.39080000     -32.47180000     -69.15990000
S      -45.54340000     -36.94740000     -72.64730000
C      -44.08520000     -32.08720000     -69.94950000
H      -44.14790000     -31.03230000     -70.21600000
H      -44.17550000     -32.57780000     -70.92070000
C      -46.13730000     -35.10430000     -72.73080000
H      -46.89220000     -35.11500000     -73.54230000
H      -45.30990000     -34.47650000     -73.01180000
C      -46.77160000     -34.65750000     -71.35880000
H      -47.42680000     -35.51300000     -71.01550000
H      -46.09000000     -34.67870000     -70.52460000
C      -45.34800000     -32.45620000     -69.11150000
H      -45.18480000     -32.09370000     -68.16200000
H      -45.49440000     -33.54100000     -69.19200000
C      -46.47110000     -31.66340000     -69.62890000
C      -46.63070000     -30.34050000     -69.42980000
C      -47.44560000     -32.14210000     -70.67160000
H      -46.02970000     -29.79950000     -68.66620000
C      -48.41310000     -31.22700000     -70.86960000
C      -47.62290000     -33.39230000     -71.49100000
C      -48.70030000     -33.29490000     -72.26220000
S      -48.06370000     -29.62890000     -70.10110000
S      -49.65420000     -31.82840000     -71.96410000
H      -49.20620000     -34.11250000     -72.70420000
