40
Properties=species:S:1:pos:R:3 #=T CELL(abcABC):=T 1.889726e+02=T 90.00000=T Traj:=T positionsangstrom=T Step:=T 0=T Bead:=T pbc="F F F"
C      -42.59550000     -34.40980000     -73.86140000
C      -43.30630000     -35.29740000     -73.04670000
C      -42.95250000     -35.26260000     -71.66640000
C      -41.95680000     -34.41620000     -71.14970000
C      -41.26810000     -33.51750000     -71.93800000
C      -41.55570000     -33.59250000     -73.33950000
H      -42.79530000     -34.35700000     -74.92730000
H      -43.33700000     -35.82750000     -70.83390000
H      -40.57440000     -32.71830000     -71.53420000
H      -40.91130000     -33.14290000     -74.10050000
C      -41.81410000     -34.27730000     -69.64550000
H      -40.77770000     -34.44610000     -69.35930000
H      -42.44870000     -34.98770000     -69.14790000
C      -44.20810000     -36.34590000     -73.70800000
H      -44.63920000     -35.98740000     -74.68370000
H      -43.48460000     -37.18210000     -73.91950000
S      -42.26440000     -32.52770000     -69.16450000
S      -45.54570000     -37.05420000     -72.69590000
C      -43.92260000     -32.24080000     -69.97000000
H      -43.94950000     -31.16960000     -70.16620000
H      -44.03740000     -32.74940000     -70.96490000
C      -46.83430000     -35.72710000     -72.69760000
H      -47.82170000     -36.24760000     -72.38920000
H      -46.93840000     -35.25920000     -73.69230000
C      -46.53910000     -34.71540000     -71.67410000
H      -46.49070000     -35.14150000     -70.65580000
H      -45.54600000     -34.32080000     -71.80160000
C      -45.07980000     -32.62020000     -69.04580000
H      -44.93430000     -32.09560000     -68.10550000
H      -45.29560000     -33.72430000     -69.06210000
C      -46.28760000     -31.90680000     -69.60980000
C      -46.58870000     -30.70010000     -69.13410000
C      -47.27650000     -32.40920000     -70.65600000
H      -46.00920000     -30.03260000     -68.44850000
C      -48.19120000     -31.46050000     -70.90260000
C      -47.46610000     -33.57310000     -71.61400000
C      -48.47010000     -33.34270000     -72.49830000
S      -48.02280000     -29.89380000     -69.99900000
S      -49.37300000     -31.80570000     -72.18090000
H      -48.82080000     -33.98810000     -73.26690000
