40
Properties=species:S:1:pos:R:3 #=T CELL(abcABC):=T 1.889726e+02=T 90.00000=T Traj:=T positionsangstrom=T Step:=T 0=T Bead:=T pbc="F F F"
C      -48.27280000     -35.18340000     -70.45670000
C      -48.63200000     -34.82900000     -71.77530000
C      -48.80400000     -33.46250000     -72.00870000
C      -48.48220000     -32.50880000     -71.01160000
C      -48.17420000     -32.94520000     -69.72530000
C      -48.02000000     -34.25980000     -69.40370000
H      -48.29980000     -36.23700000     -70.14120000
H      -48.94380000     -33.17170000     -73.04680000
H      -47.67890000     -32.19680000     -69.10700000
H      -47.66040000     -34.44480000     -68.37980000
C      -48.46500000     -31.08170000     -71.52800000
H      -48.44520000     -30.51330000     -70.53690000
H      -49.34470000     -30.86740000     -72.16430000
C      -48.46480000     -36.02350000     -72.80550000
H      -48.56720000     -36.88650000     -72.20670000
H      -49.16550000     -35.96020000     -73.57390000
S      -46.96830000     -30.61260000     -72.56550000
S      -46.85030000     -35.98840000     -73.72350000
C      -45.48650000     -31.03030000     -71.54640000
H      -45.21320000     -30.19360000     -70.80200000
H      -45.68210000     -31.99690000     -71.07570000
C      -45.64710000     -35.80290000     -72.31360000
H      -44.96780000     -36.68560000     -72.36410000
H      -46.17640000     -35.91380000     -71.36970000
C      -44.87770000     -34.50000000     -72.42290000
H      -44.35180000     -34.43080000     -73.40670000
H      -45.56470000     -33.64870000     -72.43820000
C      -44.20100000     -31.12130000     -72.36900000
H      -43.87840000     -30.19230000     -72.88540000
H      -44.35250000     -31.81820000     -73.20700000
C      -43.04900000     -31.67280000     -71.47800000
C      -41.95280000     -31.00620000     -70.91200000
C      -42.99490000     -33.06930000     -71.09950000
H      -41.79730000     -29.93780000     -71.01170000
C      -42.06570000     -33.34300000     -70.09380000
C      -43.83650000     -34.22040000     -71.33330000
C      -43.58840000     -35.21440000     -70.38700000
S      -41.09640000     -31.92380000     -69.69220000
S      -42.17430000     -34.83770000     -69.33420000
H      -44.09460000     -36.17510000     -70.33610000
