40
Properties=species:S:1:pos:R:3 #=T CELL(abcABC):=T 1.889726e+02=T 90.00000=T Traj:=T positionsangstrom=T Step:=T 0=T Bead:=T pbc="F F F"
C      -47.09440000     -30.83330000     -69.68600000
C      -45.71920000     -30.60280000     -69.82760000
C      -44.77160000     -31.35260000     -69.10280000
C      -45.24970000     -32.22220000     -68.12790000
C      -46.65700000     -32.34110000     -67.88090000
C      -47.57270000     -31.66150000     -68.69280000
H      -47.78460000     -30.45380000     -70.41640000
H      -43.67350000     -31.25170000     -69.29780000
H      -46.99360000     -33.11160000     -67.17140000
H      -48.61620000     -31.97830000     -68.70560000
C      -44.30710000     -32.99840000     -67.29630000
H      -44.76980000     -33.50590000     -66.48500000
H      -43.63200000     -32.32360000     -66.73480000
C      -45.29950000     -29.54840000     -70.94310000
H      -46.00350000     -28.72910000     -70.88040000
H      -44.30530000     -29.17490000     -70.75950000
S      -43.23950000     -34.19040000     -68.31010000
S      -45.50690000     -30.23570000     -72.67190000
C      -44.49430000     -34.91960000     -69.41280000
H      -45.03070000     -35.63770000     -68.84530000
H      -45.24090000     -34.16510000     -69.73700000
C      -43.87770000     -31.13280000     -72.77690000
H      -43.18880000     -30.50360000     -72.15110000
H      -43.53270000     -31.09630000     -73.74440000
C      -43.92500000     -32.55980000     -72.34120000
H      -42.90850000     -32.92890000     -72.36730000
H      -44.26040000     -32.68480000     -71.27200000
C      -43.85830000     -35.59850000     -70.63090000
H      -43.41090000     -36.50820000     -70.38260000
H      -43.04080000     -34.94090000     -70.93540000
C      -44.77170000     -35.84070000     -71.77100000
C      -45.38010000     -37.04840000     -71.87320000
C      -45.21620000     -34.80670000     -72.76000000
H      -45.25250000     -37.90700000     -71.19560000
C      -46.09240000     -35.43810000     -73.63200000
C      -44.83820000     -33.47250000     -73.15170000
C      -45.58030000     -33.08830000     -74.26820000
S      -46.46310000     -37.12650000     -73.27270000
S      -46.59320000     -34.37040000     -74.93830000
H      -45.43680000     -32.12820000     -74.83780000
