40
Properties=species:S:1:pos:R:3 #=T CELL(abcABC):=T 1.889726e+02=T 90.00000=T Traj:=T positionsangstrom=T Step:=T 0=T Bead:=T pbc="F F F"
C      -47.01480000     -30.82730000     -69.77350000
C      -45.61470000     -30.50030000     -69.83640000
C      -44.77150000     -31.16690000     -68.98990000
C      -45.20250000     -32.12550000     -68.02040000
C      -46.62820000     -32.35980000     -67.85970000
C      -47.46590000     -31.75160000     -68.79600000
H      -47.70400000     -30.14660000     -70.25320000
H      -43.70080000     -31.09730000     -69.07210000
H      -46.99630000     -33.03140000     -67.10110000
H      -48.52950000     -32.00930000     -68.74100000
C      -44.19470000     -32.85930000     -67.26320000
H      -44.70140000     -33.45820000     -66.47280000
H      -43.41210000     -32.18440000     -66.82930000
C      -45.19680000     -29.61720000     -70.97690000
H      -45.79400000     -28.69440000     -70.99180000
H      -44.16110000     -29.23640000     -70.90660000
S      -43.24160000     -34.07840000     -68.22670000
S      -45.47000000     -30.39240000     -72.64100000
C      -44.49080000     -34.86260000     -69.43630000
H      -45.15640000     -35.55000000     -68.82430000
H      -45.23880000     -34.11870000     -69.84170000
C      -43.81150000     -31.23770000     -72.95010000
H      -42.96020000     -30.67420000     -72.46610000
H      -43.66360000     -31.29530000     -73.99890000
C      -43.94610000     -32.65980000     -72.37490000
H      -42.95170000     -33.12370000     -72.47870000
H      -44.22560000     -32.66090000     -71.31280000
C      -43.86110000     -35.46970000     -70.65620000
H      -43.26260000     -36.35560000     -70.37150000
H      -43.06440000     -34.78510000     -71.08970000
C      -44.88750000     -35.85620000     -71.74880000
C      -45.50620000     -37.04430000     -71.89930000
C      -45.24610000     -34.94320000     -72.83950000
H      -45.30400000     -37.90380000     -71.22280000
C      -46.16490000     -35.44790000     -73.66870000
C      -44.87840000     -33.58380000     -73.13700000
C      -45.61190000     -33.14830000     -74.21710000
S      -46.51920000     -37.10320000     -73.29770000
S      -46.67040000     -34.36710000     -74.90330000
H      -45.64010000     -32.18680000     -74.70090000
