40
Properties=species:S:1:pos:R:3 #=T CELL(abcABC):=T 1.889726e+02=T 90.00000=T Traj:=T positionsangstrom=T Step:=T 0=T Bead:=T pbc="F F F"
C      -45.26020000     -37.09120000     -70.17700000
C      -45.42430000     -36.00200000     -71.05230000
C      -44.65430000     -34.85380000     -70.83860000
C      -43.82010000     -34.71800000     -69.71960000
C      -43.63110000     -35.83330000     -68.86540000
C      -44.39600000     -36.94090000     -69.06440000
H      -45.81060000     -38.03230000     -70.31960000
H      -44.80170000     -34.08870000     -71.53960000
H      -43.03800000     -35.84980000     -67.99790000
H      -44.17950000     -37.85630000     -68.45200000
C      -42.99250000     -33.46590000     -69.55350000
H      -42.82420000     -32.84220000     -70.44240000
H      -42.02650000     -33.67070000     -69.11930000
C      -46.32890000     -36.21070000     -72.27180000
H      -45.94640000     -35.38570000     -72.98200000
H      -46.34220000     -37.20870000     -72.77790000
S      -43.80300000     -32.31690000     -68.18250000
S      -48.10680000     -35.85750000     -71.93830000
C      -45.54480000     -32.47160000     -68.68170000
H      -45.63630000     -33.51440000     -69.08740000
H      -46.20540000     -32.52070000     -67.79910000
C      -48.03410000     -34.13990000     -71.24150000
H      -47.28130000     -34.11220000     -70.45030000
H      -49.01070000     -34.09490000     -70.66820000
C      -48.04190000     -32.94570000     -72.24230000
H      -48.72890000     -33.14700000     -73.00380000
H      -48.36380000     -32.10990000     -71.66470000
C      -46.04330000     -31.47660000     -69.70050000
H      -45.91670000     -30.50540000     -69.27610000
H      -47.13580000     -31.61350000     -69.77240000
C      -45.33130000     -31.37550000     -71.00140000
C      -44.17130000     -30.63610000     -71.01790000
C      -45.56990000     -31.99810000     -72.29870000
H      -43.75250000     -30.08660000     -70.22960000
C      -44.65040000     -31.62930000     -73.23240000
C      -46.71680000     -32.67190000     -72.91020000
C      -46.50650000     -32.76620000     -74.27010000
S      -43.41350000     -30.57350000     -72.60040000
S      -45.03710000     -32.11390000     -74.84330000
H      -47.21480000     -33.25970000     -74.91080000
