40
Properties=species:S:1:pos:R:3 #=T CELL(abcABC):=T 1.889726e+02=T 90.00000=T Traj:=T positionsangstrom=T Step:=T 0=T Bead:=T pbc="F F F"
C      -45.34540000     -37.08800000     -69.99720000
C      -45.28830000     -36.10520000     -70.99650000
C      -44.45250000     -35.02240000     -70.81450000
C      -43.70780000     -34.89390000     -69.63030000
C      -43.72740000     -35.86320000     -68.66030000
C      -44.56450000     -36.95070000     -68.84350000
H      -45.87550000     -38.04050000     -70.10430000
H      -44.39410000     -34.20550000     -71.50040000
H      -43.09940000     -35.93720000     -67.74720000
H      -44.75800000     -37.74110000     -68.07570000
C      -43.04470000     -33.58910000     -69.40140000
H      -42.99380000     -33.01020000     -70.36910000
H      -42.05100000     -33.69010000     -68.92910000
C      -46.14970000     -36.14400000     -72.27800000
H      -45.87790000     -35.43640000     -73.02240000
H      -46.16140000     -37.06620000     -72.80670000
S      -43.94650000     -32.47800000     -68.31690000
S      -47.99230000     -35.86910000     -71.85780000
C      -45.73780000     -32.50690000     -68.91780000
H      -45.85300000     -33.48220000     -69.43990000
H      -46.39130000     -32.49860000     -68.05560000
C      -48.05080000     -34.07720000     -71.30000000
H      -47.26920000     -33.81260000     -70.59750000
H      -48.98730000     -34.04570000     -70.75570000
C      -48.03140000     -32.99920000     -72.33600000
H      -48.77560000     -33.25450000     -73.07780000
H      -48.55480000     -32.03640000     -71.96360000
C      -46.19680000     -31.30690000     -69.79600000
H      -46.00730000     -30.40040000     -69.15290000
H      -47.24890000     -31.35690000     -70.08190000
C      -45.37370000     -31.15600000     -71.08810000
C      -44.12590000     -30.50030000     -71.05360000
C      -45.63020000     -31.79420000     -72.34790000
H      -43.70030000     -30.02420000     -70.17170000
C      -44.61830000     -31.52920000     -73.25270000
C      -46.76150000     -32.45800000     -72.94520000
C      -46.52660000     -32.73670000     -74.25030000
S      -43.28500000     -30.63820000     -72.61480000
S      -45.02300000     -32.08320000     -74.85660000
H      -47.26400000     -33.30850000     -74.78790000
