40
Properties=species:S:1:pos:R:3 #=T CELL(abcABC):=T 1.889726e+02=T 90.00000=T Traj:=T positionsangstrom=T Step:=T 0=T Bead:=T pbc="F F F"
C      -45.13890000     -37.11940000     -70.25400000
C      -45.39870000     -36.02000000     -71.16750000
C      -44.68370000     -34.79330000     -70.92420000
C      -43.72760000     -34.70090000     -69.92370000
C      -43.61360000     -35.78590000     -68.98810000
C      -44.16780000     -37.00540000     -69.27720000
H      -45.78990000     -38.01020000     -70.36970000
H      -44.71620000     -33.97870000     -71.67340000
H      -42.93440000     -35.79380000     -68.20860000
H      -43.88510000     -37.86270000     -68.70690000
C      -42.97530000     -33.40500000     -69.61990000
H      -42.97800000     -32.88740000     -70.57130000
H      -41.93170000     -33.64130000     -69.41030000
C      -46.27310000     -36.06980000     -72.37330000
H      -45.85730000     -35.45840000     -73.12150000
H      -46.30740000     -37.06550000     -72.68760000
S      -43.73920000     -32.38800000     -68.29420000
S      -48.01300000     -35.70220000     -72.01590000
C      -45.60170000     -32.38750000     -68.53320000
H      -45.84400000     -33.41520000     -68.58630000
H      -46.01920000     -31.92630000     -67.64710000
C      -48.00210000     -34.15560000     -71.06590000
H      -47.09340000     -34.10220000     -70.53610000
H      -48.85100000     -34.11960000     -70.39930000
C      -48.12220000     -32.92750000     -72.05910000
H      -48.92530000     -33.31340000     -72.80400000
H      -48.43500000     -32.00200000     -71.49610000
C      -46.21610000     -31.58360000     -69.69710000
H      -46.47040000     -30.57250000     -69.30040000
H      -47.19630000     -32.01690000     -69.95170000
C      -45.34110000     -31.35310000     -70.89930000
C      -44.14880000     -30.68580000     -70.95980000
C      -45.76600000     -31.76070000     -72.22830000
H      -43.52560000     -30.18510000     -70.24350000
C      -44.82840000     -31.47990000     -73.20570000
C      -46.84690000     -32.64270000     -72.79560000
C      -46.62920000     -32.97590000     -74.13570000
S      -43.43240000     -30.65450000     -72.54350000
S      -45.04280000     -32.26260000     -74.72050000
H      -47.35650000     -33.38780000     -74.85420000
