40
Properties=species:S:1:pos:R:3 #=T CELL(abcABC):=T 1.889726e+02=T 90.00000=T Traj:=T positionsangstrom=T Step:=T 0=T Bead:=T pbc="F F F"
C      -44.89390000     -37.13280000     -70.48790000
C      -44.91750000     -36.04820000     -71.38320000
C      -44.22400000     -34.90830000     -71.05960000
C      -43.57200000     -34.70970000     -69.81790000
C      -43.55940000     -35.86600000     -68.95530000
C      -44.18700000     -37.08320000     -69.32800000
H      -45.52620000     -37.99120000     -70.80460000
H      -44.22480000     -34.06950000     -71.74830000
H      -42.97690000     -35.84550000     -68.07030000
H      -44.14730000     -37.99840000     -68.73640000
C      -42.96010000     -33.39110000     -69.51880000
H      -42.93710000     -32.73890000     -70.42840000
H      -41.89300000     -33.37200000     -69.25220000
C      -45.72350000     -36.05120000     -72.64980000
H      -45.25760000     -35.20310000     -73.17930000
H      -45.64270000     -36.99300000     -73.26090000
S      -43.89500000     -32.59420000     -68.05550000
S      -47.55030000     -35.91060000     -72.19300000
C      -45.61720000     -32.36980000     -68.71740000
H      -45.85520000     -33.30930000     -69.28340000
H      -46.29690000     -32.31510000     -67.88650000
C      -47.55360000     -34.67230000     -70.79820000
H      -46.54360000     -34.63460000     -70.33210000
H      -48.22050000     -35.03750000     -70.05430000
C      -47.91700000     -33.23270000     -71.22870000
H      -48.96580000     -33.15710000     -71.56450000
H      -47.85840000     -32.60510000     -70.29140000
C      -45.77620000     -31.06210000     -69.52620000
H      -45.10280000     -30.29300000     -69.11510000
H      -46.77270000     -30.61720000     -69.48340000
C      -45.27680000     -31.09840000     -70.96040000
C      -44.12840000     -30.42170000     -71.30490000
C      -45.87770000     -31.68610000     -72.14010000
H      -43.59550000     -29.87190000     -70.60020000
C      -45.17900000     -31.42840000     -73.31320000
C      -46.93040000     -32.67020000     -72.29080000
C      -47.05750000     -32.98340000     -73.62570000
S      -43.80310000     -30.33780000     -73.08760000
S      -45.92450000     -32.17150000     -74.69370000
H      -47.59670000     -33.90510000     -73.91320000
