40
Properties=species:S:1:pos:R:3 #=T CELL(abcABC):=T 1.889726e+02=T 90.00000=T Traj:=T positionsangstrom=T Step:=T 0=T Bead:=T pbc="F F F"
C      -44.91910000     -37.05770000     -70.61610000
C      -44.92870000     -35.96480000     -71.49530000
C      -44.32570000     -34.73460000     -71.13660000
C      -43.72380000     -34.56880000     -69.90770000
C      -43.76210000     -35.68920000     -69.03730000
C      -44.21610000     -36.94740000     -69.46310000
H      -45.30460000     -38.10230000     -70.94950000
H      -44.38400000     -33.87040000     -71.78560000
H      -43.30200000     -35.52170000     -68.11630000
H      -44.15340000     -37.72970000     -68.72350000
C      -43.08960000     -33.28570000     -69.47590000
H      -43.02580000     -32.60170000     -70.33020000
H      -42.06270000     -33.45300000     -68.99120000
C      -45.83970000     -36.02550000     -72.74810000
H      -45.56020000     -35.33800000     -73.55090000
H      -45.94490000     -36.92110000     -73.30190000
S      -43.87550000     -32.57520000     -67.95590000
S      -47.63670000     -35.90640000     -72.17770000
C      -45.59130000     -32.21860000     -68.53430000
H      -46.03480000     -33.11870000     -69.03440000
H      -46.28010000     -32.04120000     -67.70910000
C      -47.59670000     -34.60630000     -70.81660000
H      -46.66940000     -34.70070000     -70.26590000
H      -48.45480000     -34.92880000     -70.22400000
C      -47.96580000     -33.18480000     -71.31950000
H      -48.99970000     -33.19110000     -71.75500000
H      -47.96370000     -32.61000000     -70.43120000
C      -45.71770000     -30.96220000     -69.54180000
H      -45.20660000     -30.13660000     -69.03720000
H      -46.77160000     -30.87640000     -69.50540000
C      -45.23620000     -31.05730000     -70.97200000
C      -44.16280000     -30.29780000     -71.36340000
C      -45.74970000     -31.86470000     -72.05070000
H      -43.60580000     -29.65150000     -70.77530000
C      -45.00770000     -31.68910000     -73.22880000
C      -46.94500000     -32.64070000     -72.29540000
C      -47.09170000     -33.00910000     -73.62790000
S      -43.65820000     -30.51790000     -73.05110000
S      -45.73730000     -32.44190000     -74.63430000
H      -47.94940000     -33.61860000     -73.97120000
