40
Properties=species:S:1:pos:R:3 #=T CELL(abcABC):=T 1.889726e+02=T 90.00000=T Traj:=T positionsangstrom=T Step:=T 0=T Bead:=T pbc="F F F"
C      -44.95580000     -37.09880000     -70.54490000
C      -45.13470000     -35.98650000     -71.35440000
C      -44.51410000     -34.74940000     -70.97270000
C      -43.59710000     -34.67390000     -69.86200000
C      -43.50650000     -35.81400000     -69.07170000
C      -44.22600000     -36.98270000     -69.36980000
H      -45.32030000     -38.04630000     -70.78710000
H      -44.65990000     -33.89120000     -71.60390000
H      -42.73340000     -35.94170000     -68.23070000
H      -43.99940000     -37.91990000     -68.82010000
C      -42.92030000     -33.28730000     -69.60630000
H      -42.70870000     -32.63070000     -70.49480000
H      -41.96660000     -33.31840000     -69.11910000
C      -46.05440000     -36.04680000     -72.61280000
H      -45.83340000     -35.22480000     -73.23680000
H      -45.83440000     -36.99230000     -73.05820000
S      -43.90310000     -32.28380000     -68.33350000
S      -47.85650000     -35.80340000     -72.24990000
C      -45.66530000     -32.27950000     -68.80900000
H      -45.87940000     -33.14520000     -69.47240000
H      -46.18170000     -32.46460000     -67.85770000
C      -47.91850000     -34.41900000     -71.00090000
H      -47.03180000     -34.52410000     -70.36580000
H      -48.79440000     -34.71700000     -70.43880000
C      -48.05660000     -32.95670000     -71.50960000
H      -49.00840000     -32.83840000     -72.00500000
H      -48.15850000     -32.26860000     -70.61560000
C      -46.03650000     -30.96330000     -69.59040000
H      -46.05800000     -30.09710000     -68.98950000
H      -47.12910000     -31.07070000     -69.79640000
C      -45.30330000     -30.95270000     -70.87960000
C      -44.07950000     -30.40970000     -71.05650000
C      -45.79860000     -31.76320000     -72.01240000
H      -43.44090000     -29.70210000     -70.43370000
C      -44.90520000     -31.66630000     -73.09430000
C      -46.92990000     -32.58050000     -72.39990000
C      -46.94380000     -33.00030000     -73.72540000
S      -43.43580000     -30.88090000     -72.69790000
S      -45.43900000     -32.53330000     -74.56440000
H      -47.57340000     -33.77880000     -74.16460000
