40
Properties=species:S:1:pos:R:3 #=T CELL(abcABC):=T 1.889726e+02=T 90.00000=T Traj:=T positionsangstrom=T Step:=T 0=T Bead:=T pbc="F F F"
C      -43.50400000     -36.76380000     -70.53670000
C      -44.39260000     -35.84150000     -71.13360000
C      -44.08950000     -34.49670000     -71.16180000
C      -42.90350000     -34.04070000     -70.50620000
C      -42.03870000     -34.94830000     -69.83330000
C      -42.43350000     -36.31440000     -69.77580000
H      -43.84190000     -37.79540000     -70.55440000
H      -44.79930000     -33.85280000     -71.71220000
H      -41.16860000     -34.51710000     -69.43100000
H      -41.94920000     -37.20550000     -69.21320000
C      -42.49240000     -32.58490000     -70.58390000
H      -42.83900000     -32.15020000     -71.54560000
H      -41.41170000     -32.55090000     -70.60820000
C      -45.48830000     -36.43900000     -71.98680000
H      -45.63050000     -35.82680000     -72.92310000
H      -45.23870000     -37.43230000     -72.22520000
S      -43.09610000     -31.36770000     -69.20670000
S      -47.19290000     -36.56720000     -71.22230000
C      -44.84350000     -31.98930000     -68.90700000
H      -44.89120000     -33.02850000     -69.31010000
H      -44.98070000     -32.14080000     -67.83670000
C      -47.17870000     -35.26860000     -69.96140000
H      -46.08740000     -35.09020000     -69.70170000
H      -47.53500000     -35.62830000     -68.96100000
C      -47.93970000     -33.94350000     -70.43610000
H      -48.97270000     -34.30480000     -70.49000000
H      -47.80810000     -33.15940000     -69.64710000
C      -45.95090000     -31.06960000     -69.49200000
H      -45.87070000     -30.05220000     -69.16870000
H      -46.95730000     -31.28010000     -69.12470000
C      -45.90640000     -31.19890000     -71.00450000
C      -45.14270000     -30.26140000     -71.68150000
C      -46.56440000     -32.12220000     -71.83750000
H      -44.52150000     -29.54210000     -71.20320000
C      -46.21460000     -31.82730000     -73.18910000
C      -47.44740000     -33.26550000     -71.74650000
C      -47.77000000     -33.71010000     -72.98450000
S      -45.16080000     -30.48430000     -73.43830000
S      -47.07140000     -32.86200000     -74.33110000
H      -48.36690000     -34.59920000     -73.13220000
