40
Properties=species:S:1:pos:R:3 #=T CELL(abcABC):=T 1.889726e+02=T 90.00000=T Traj:=T positionsangstrom=T Step:=T 0=T Bead:=T pbc="F F F"
C      -44.36640000     -36.69380000     -69.89050000
C      -44.45300000     -35.81670000     -70.99490000
C      -43.69970000     -34.70090000     -71.01980000
C      -42.81830000     -34.35580000     -69.99270000
C      -42.72250000     -35.19840000     -68.88790000
C      -43.41320000     -36.42850000     -68.87180000
H      -45.00540000     -37.57070000     -69.95010000
H      -43.86330000     -33.95130000     -71.74770000
H      -42.03910000     -34.95550000     -68.09950000
H      -43.28500000     -36.95500000     -67.95310000
C      -42.14980000     -33.00730000     -70.10380000
H      -42.19110000     -32.66550000     -71.15940000
H      -41.09800000     -33.03610000     -69.78670000
C      -45.42270000     -36.10830000     -72.11290000
H      -45.34670000     -35.32940000     -72.89480000
H      -45.07150000     -37.04410000     -72.59090000
S      -42.97350000     -31.87210000     -68.94180000
S      -47.18900000     -36.37670000     -71.67280000
C      -44.78180000     -32.28440000     -68.98450000
H      -44.83140000     -33.29020000     -69.54400000
H      -45.00570000     -32.58970000     -67.94980000
C      -47.43740000     -35.05350000     -70.36880000
H      -46.44890000     -34.77130000     -69.98280000
H      -47.91990000     -35.44830000     -69.46160000
C      -48.13530000     -33.81800000     -70.95350000
H      -49.12090000     -34.01680000     -71.28650000
H      -48.17060000     -33.16340000     -70.12070000
C      -45.82500000     -31.36980000     -69.58260000
H      -45.95070000     -30.33190000     -69.21690000
H      -46.77030000     -31.85850000     -69.21570000
C      -45.67860000     -31.23070000     -71.10750000
C      -44.77030000     -30.38990000     -71.69180000
C      -46.41240000     -32.03180000     -72.10880000
H      -44.13840000     -29.71810000     -71.16530000
C      -46.12540000     -31.62150000     -73.37700000
C      -47.42690000     -33.11480000     -72.14070000
C      -47.87310000     -33.37310000     -73.39250000
S      -44.92540000     -30.30840000     -73.41600000
S      -46.91510000     -32.51200000     -74.64190000
H      -48.66910000     -34.10840000     -73.58960000
