40
Properties=species:S:1:pos:R:3 #=T CELL(abcABC):=T 1.889726e+02=T 90.00000=T Traj:=T positionsangstrom=T Step:=T 0=T Bead:=T pbc="F F F"
C      -44.10450000     -36.74350000     -70.09470000
C      -44.29680000     -35.90610000     -71.18650000
C      -43.66020000     -34.67750000     -71.27310000
C      -42.87660000     -34.24930000     -70.24780000
C      -42.57340000     -35.12060000     -69.18710000
C      -43.17510000     -36.36740000     -69.06480000
H      -44.78590000     -37.58600000     -70.06350000
H      -43.73970000     -33.97360000     -72.10920000
H      -41.85370000     -34.75810000     -68.40220000
H      -43.00330000     -36.82000000     -68.13080000
C      -42.25660000     -32.89990000     -70.15760000
H      -42.04460000     -32.35720000     -71.05380000
H      -41.30050000     -32.93110000     -69.61920000
C      -45.31760000     -36.33280000     -72.20720000
H      -45.33280000     -35.72540000     -73.03600000
H      -45.18030000     -37.42360000     -72.53300000
S      -43.13490000     -31.68200000     -69.06390000
S      -47.08030000     -36.36340000     -71.39610000
C      -44.88190000     -32.31390000     -68.98350000
H      -45.03530000     -33.19160000     -69.53450000
H      -45.14330000     -32.41810000     -67.92790000
C      -47.11960000     -34.86480000     -70.22630000
H      -46.15960000     -34.39260000     -70.09420000
H      -47.51530000     -35.29910000     -69.26470000
C      -48.05920000     -33.75440000     -70.69970000
H      -49.13620000     -34.16740000     -70.81790000
H      -48.04570000     -33.01500000     -69.86600000
C      -45.86570000     -31.30810000     -69.51140000
H      -45.50600000     -30.34500000     -69.18240000
H      -46.83650000     -31.49750000     -69.11130000
C      -45.87710000     -31.18620000     -71.08290000
C      -45.05140000     -30.25120000     -71.66620000
C      -46.53090000     -32.04050000     -71.98320000
H      -44.42330000     -29.49640000     -71.16040000
C      -46.31810000     -31.59450000     -73.30540000
C      -47.47800000     -33.17310000     -72.00090000
C      -47.71510000     -33.58900000     -73.27200000
S      -45.02110000     -30.43800000     -73.45660000
S      -46.94620000     -32.70180000     -74.54920000
H      -48.39160000     -34.38960000     -73.61080000
