40
Properties=species:S:1:pos:R:3 #=T CELL(abcABC):=T 1.889726e+02=T 90.00000=T Traj:=T positionsangstrom=T Step:=T 0=T Bead:=T pbc="F F F"
C      -43.26660000     -36.16570000     -70.96620000
C      -44.20180000     -35.36270000     -71.68180000
C      -43.79260000     -34.04170000     -71.90590000
C      -42.50390000     -33.58050000     -71.59270000
C      -41.61800000     -34.40390000     -70.85120000
C      -41.99300000     -35.72650000     -70.61120000
H      -43.51910000     -37.12880000     -70.68410000
H      -44.38180000     -33.40980000     -72.54460000
H      -40.73650000     -34.08450000     -70.39960000
H      -41.21070000     -36.32450000     -70.25010000
C      -42.22000000     -32.09050000     -71.68950000
H      -42.89350000     -31.63770000     -72.45150000
H      -41.19980000     -31.77270000     -72.11380000
C      -45.51390000     -35.89650000     -72.25490000
H      -45.98850000     -35.10590000     -72.88150000
H      -45.27370000     -36.67120000     -72.98150000
S      -42.43630000     -31.33940000     -69.92670000
S      -46.51400000     -36.71190000     -70.90840000
C      -43.92220000     -32.06440000     -69.04370000
H      -44.01280000     -33.14660000     -69.22200000
H      -43.76250000     -31.87950000     -68.00190000
C      -46.34900000     -35.32850000     -69.62220000
H      -45.40370000     -34.86490000     -69.72190000
H      -46.28550000     -35.83230000     -68.68920000
C      -47.46880000     -34.24270000     -69.51060000
H      -48.35650000     -34.77000000     -69.13210000
H      -47.11730000     -33.56620000     -68.70580000
C      -45.26170000     -31.36850000     -69.45610000
H      -45.00040000     -30.27960000     -69.41640000
H      -46.05430000     -31.61680000     -68.74490000
C      -45.80110000     -31.55660000     -70.89230000
C      -45.34580000     -30.67760000     -71.82660000
C      -46.90230000     -32.44860000     -71.32760000
H      -44.63420000     -29.89480000     -71.69300000
C      -47.32750000     -32.01210000     -72.60830000
C      -47.61450000     -33.55010000     -70.86800000
C      -48.57730000     -34.01510000     -71.75720000
S      -46.24920000     -30.80010000     -73.34480000
S      -48.55090000     -33.11490000     -73.29910000
H      -49.16430000     -34.88520000     -71.69320000
