40
Properties=species:S:1:pos:R:3 #=T CELL(abcABC):=T 1.889726e+02=T 90.00000=T Traj:=T positionsangstrom=T Step:=T 0=T Bead:=T pbc="F F F"
C      -43.37340000     -36.65600000     -70.83580000
C      -44.35760000     -35.77450000     -71.27060000
C      -44.22480000     -34.40130000     -71.24810000
C      -42.98310000     -33.85710000     -70.82020000
C      -41.97330000     -34.73400000     -70.31270000
C      -42.19190000     -36.11090000     -70.26400000
H      -43.47180000     -37.75840000     -70.97510000
H      -45.10420000     -33.90630000     -71.48870000
H      -41.08520000     -34.32120000     -69.82760000
H      -41.53520000     -36.88820000     -69.80020000
C      -42.80360000     -32.35830000     -70.74700000
H      -43.36240000     -31.72320000     -71.41340000
H      -41.77970000     -31.99840000     -70.87390000
C      -45.61030000     -36.31970000     -71.94860000
H      -45.94550000     -35.68650000     -72.77480000
H      -45.38810000     -37.33390000     -72.39370000
S      -43.04440000     -31.54570000     -69.06520000
S      -47.15710000     -36.62340000     -70.99820000
C      -44.77090000     -31.98860000     -68.64020000
H      -45.00640000     -33.04770000     -69.04020000
H      -44.89060000     -31.90150000     -67.57190000
C      -47.22350000     -35.12760000     -69.82830000
H      -46.24750000     -35.02850000     -69.50830000
H      -47.90500000     -35.45850000     -69.06770000
C      -47.91560000     -33.91690000     -70.36060000
H      -49.00810000     -34.14510000     -70.45540000
H      -47.87640000     -33.14210000     -69.63960000
C      -45.85420000     -31.19400000     -69.39870000
H      -45.81100000     -30.16180000     -69.02840000
H      -46.81170000     -31.65920000     -69.07530000
C      -45.80670000     -31.24200000     -70.92520000
C      -45.17010000     -30.30000000     -71.68850000
C      -46.58340000     -32.15380000     -71.84910000
H      -44.47650000     -29.59840000     -71.19870000
C      -46.30600000     -31.86730000     -73.16470000
C      -47.43750000     -33.31020000     -71.67880000
C      -47.68080000     -33.90140000     -72.88470000
S      -45.23740000     -30.49110000     -73.44280000
S      -47.06560000     -32.99620000     -74.27110000
H      -48.10590000     -34.85640000     -72.85220000
