40
Properties=species:S:1:pos:R:3 #=T CELL(abcABC):=T 1.889726e+02=T 90.00000=T Traj:=T positionsangstrom=T Step:=T 0=T Bead:=T pbc="F F F"
C      -48.22120000     -34.96330000     -69.82630000
C      -48.33210000     -34.77020000     -71.20220000
C      -48.57120000     -33.52000000     -71.70660000
C      -48.39950000     -32.40300000     -70.85140000
C      -48.24110000     -32.59290000     -69.48950000
C      -48.28130000     -33.87300000     -68.94160000
H      -48.16260000     -35.91790000     -69.43940000
H      -48.76080000     -33.24170000     -72.77830000
H      -47.98850000     -31.76410000     -68.81160000
H      -48.18760000     -34.08430000     -67.85390000
C      -48.44000000     -30.98690000     -71.40930000
H      -48.28790000     -30.30630000     -70.56150000
H      -49.43150000     -30.81650000     -71.85710000
C      -48.36000000     -36.00560000     -72.05760000
H      -48.29960000     -36.87360000     -71.37600000
H      -49.34760000     -36.00440000     -72.55690000
S      -47.18990000     -30.41920000     -72.71130000
S      -47.03050000     -36.27760000     -73.28960000
C      -45.62420000     -30.60680000     -71.73660000
H      -45.13410000     -29.63930000     -71.69930000
H      -45.82100000     -30.95820000     -70.75310000
C      -45.47050000     -36.20500000     -72.35890000
H      -44.68150000     -36.56090000     -73.15770000
H      -45.48870000     -36.94240000     -71.57160000
C      -45.15920000     -34.76230000     -71.89860000
H      -45.10430000     -34.16340000     -72.80720000
H      -45.80890000     -34.27360000     -71.17510000
C      -44.65230000     -31.53770000     -72.53070000
H      -44.42230000     -30.94770000     -73.41470000
H      -45.16570000     -32.45740000     -72.91680000
C      -43.33530000     -31.91620000     -71.77390000
C      -42.38360000     -31.00910000     -71.31510000
C      -43.01330000     -33.25490000     -71.29580000
H      -42.45070000     -29.93160000     -71.50870000
C      -41.82610000     -33.26950000     -70.56030000
C      -43.73460000     -34.54090000     -71.32210000
C      -43.10860000     -35.45080000     -70.56390000
S      -41.16730000     -31.69800000     -70.30600000
S      -41.59360000     -34.81920000     -69.80500000
H      -43.41080000     -36.42030000     -70.28040000
