40
Properties=species:S:1:pos:R:3 #=T CELL(abcABC):=T 1.889726e+02=T 90.00000=T Traj:=T positionsangstrom=T Step:=T 0=T Bead:=T pbc="F F F"
C      -42.81820000     -35.98160000     -71.90580000
C      -44.12470000     -35.51500000     -71.93040000
C      -44.26790000     -34.14680000     -72.26380000
C      -43.20730000     -33.38650000     -72.74270000
C      -41.89060000     -33.92500000     -72.61550000
C      -41.67140000     -35.24090000     -72.18630000
H      -42.74470000     -37.04810000     -71.59620000
H      -45.27900000     -33.68070000     -72.35860000
H      -41.13540000     -33.17560000     -72.79710000
H      -40.69110000     -35.71460000     -71.97040000
C      -43.41000000     -31.87520000     -73.02690000
H      -44.51510000     -31.68260000     -73.13130000
H      -42.95020000     -31.50670000     -73.93960000
C      -45.34510000     -36.31250000     -71.62460000
H      -46.25330000     -35.80150000     -71.86680000
H      -45.41200000     -37.30900000     -72.04080000
S      -42.83840000     -30.79700000     -71.59880000
S      -45.54210000     -36.56160000     -69.74810000
C      -43.45570000     -31.61310000     -70.01890000
H      -43.40330000     -32.67500000     -70.08240000
H      -42.85970000     -31.29700000     -69.14850000
C      -45.17480000     -34.95130000     -68.98900000
H      -44.31780000     -34.50190000     -69.61840000
H      -44.73500000     -35.18940000     -68.01990000
C      -46.43130000     -34.13240000     -68.72010000
H      -47.10410000     -34.65950000     -67.92190000
H      -45.92900000     -33.26500000     -68.12230000
C      -44.80460000     -31.13250000     -69.66380000
H      -44.72710000     -29.99040000     -69.59830000
H      -45.15540000     -31.53900000     -68.65170000
C      -45.85220000     -31.45240000     -70.75280000
C      -46.03860000     -30.61970000     -71.81390000
C      -46.85260000     -32.56120000     -70.75590000
H      -45.55730000     -29.68320000     -72.07240000
C      -47.72150000     -32.46060000     -71.81310000
C      -47.16080000     -33.74040000     -69.98710000
C      -48.09420000     -34.58830000     -70.57010000
S      -47.26740000     -31.13260000     -72.89080000
S      -48.72560000     -33.89570000     -72.03350000
H      -48.59040000     -35.45980000     -70.07760000
