40
Properties=species:S:1:pos:R:3 #=T CELL(abcABC):=T 1.889726e+02=T 90.00000=T Traj:=T positionsangstrom=T Step:=T 0=T Bead:=T pbc="F F F"
C      -42.81260000     -36.02720000     -71.92480000
C      -44.12690000     -35.56740000     -71.94720000
C      -44.31470000     -34.25290000     -72.38170000
C      -43.28520000     -33.37370000     -72.83970000
C      -41.96810000     -33.86020000     -72.69730000
C      -41.76200000     -35.21100000     -72.31730000
H      -42.67970000     -36.99030000     -71.43070000
H      -45.30110000     -33.92990000     -72.19490000
H      -41.24470000     -33.09240000     -73.02100000
H      -40.74100000     -35.58460000     -72.29730000
C      -43.55710000     -31.93040000     -73.14990000
H      -44.56100000     -31.76310000     -73.47210000
H      -42.98780000     -31.58330000     -74.07440000
C      -45.20510000     -36.44620000     -71.46320000
H      -46.19100000     -36.33720000     -71.88270000
H      -44.79770000     -37.42930000     -71.75500000
S      -42.94500000     -30.70400000     -71.82610000
S      -45.20550000     -36.61510000     -69.55840000
C      -43.52920000     -31.50090000     -70.27830000
H      -43.57560000     -32.53440000     -70.58940000
H      -42.72670000     -31.44220000     -69.51350000
C      -45.00500000     -34.93420000     -68.90720000
H      -44.41530000     -34.32060000     -69.61900000
H      -44.55560000     -34.90940000     -67.94650000
C      -46.32900000     -34.19970000     -68.66470000
H      -46.89650000     -34.81580000     -68.06430000
H      -46.03320000     -33.33420000     -68.06990000
C      -44.93480000     -31.14680000     -69.71770000
H      -44.89170000     -30.09640000     -69.42170000
H      -45.08540000     -31.85680000     -68.95710000
C      -46.02710000     -31.30510000     -70.68770000
C      -46.31920000     -30.39690000     -71.64970000
C      -46.79930000     -32.52190000     -70.76480000
H      -45.71740000     -29.50320000     -71.78900000
C      -47.61050000     -32.57420000     -71.87830000
C      -47.07080000     -33.70690000     -69.87230000
C      -48.06840000     -34.53060000     -70.39350000
S      -47.45190000     -31.13810000     -72.83840000
S      -48.63380000     -33.96260000     -71.95740000
H      -48.52290000     -35.38430000     -69.96460000
