40
Properties=species:S:1:pos:R:3 #=T CELL(abcABC):=T 1.889726e+02=T 90.00000=T Traj:=T positionsangstrom=T Step:=T 0=T Bead:=T pbc="F F F"
C      -42.97110000     -36.31860000     -71.32170000
C      -43.93060000     -35.51010000     -71.92960000
C      -43.54150000     -34.15690000     -72.23830000
C      -42.26810000     -33.65750000     -71.87790000
C      -41.32210000     -34.57120000     -71.42280000
C      -41.65030000     -35.88720000     -71.08190000
H      -43.12580000     -37.39790000     -71.04640000
H      -44.31990000     -33.46000000     -72.68270000
H      -40.32740000     -34.15470000     -71.23860000
H      -40.83700000     -36.55540000     -70.68180000
C      -41.99740000     -32.16660000     -71.92790000
H      -42.39490000     -31.80400000     -72.84380000
H      -40.92330000     -32.03220000     -72.19680000
C      -45.34380000     -35.96650000     -72.19150000
H      -45.85930000     -35.27000000     -72.88800000
H      -45.30840000     -36.89750000     -72.70260000
S      -42.46590000     -30.93940000     -70.56600000
S      -46.30120000     -36.36370000     -70.62840000
C      -43.82410000     -31.90700000     -69.63780000
H      -43.81650000     -32.82400000     -70.18630000
H      -43.55680000     -32.13860000     -68.61060000
C      -45.82130000     -35.08930000     -69.40480000
H      -44.91260000     -34.70760000     -69.83980000
H      -45.45740000     -35.66720000     -68.51390000
C      -47.06580000     -34.17980000     -69.13130000
H      -47.86360000     -34.66780000     -68.54220000
H      -46.77950000     -33.30900000     -68.38130000
C      -45.17870000     -31.23790000     -69.61000000
H      -45.14560000     -30.16710000     -69.28980000
H      -45.89390000     -31.82360000     -68.91580000
C      -45.96320000     -31.47620000     -70.87240000
C      -45.71290000     -30.73960000     -71.96280000
C      -47.08580000     -32.39580000     -71.08970000
H      -45.00570000     -29.94310000     -72.02970000
C      -47.64890000     -32.27210000     -72.31040000
C      -47.66430000     -33.53180000     -70.28830000
C      -48.64360000     -34.13060000     -71.06520000
S      -46.82910000     -31.12090000     -73.27180000
S      -49.05280000     -33.26370000     -72.60910000
H      -49.26880000     -35.02000000     -70.86930000
