40
Properties=species:S:1:pos:R:3 #=T CELL(abcABC):=T 1.889726e+02=T 90.00000=T Traj:=T positionsangstrom=T Step:=T 0=T Bead:=T pbc="F F F"
C      -42.05260000     -34.99950000     -72.19010000
C      -43.01610000     -35.99190000     -71.85540000
C      -43.55800000     -36.17830000     -70.54030000
C      -43.15050000     -35.22700000     -69.52960000
C      -42.35320000     -34.11850000     -69.94490000
C      -41.80460000     -34.02710000     -71.22470000
H      -41.48410000     -35.03830000     -73.12380000
H      -44.28520000     -36.92590000     -70.25860000
H      -42.10900000     -33.36630000     -69.17320000
H      -41.19910000     -33.20270000     -71.42200000
C      -43.70710000     -35.23330000     -68.11230000
H      -43.31560000     -34.50600000     -67.52580000
H      -43.73870000     -36.24450000     -67.73500000
C      -43.45500000     -36.92320000     -72.96440000
H      -42.94150000     -36.76350000     -73.88950000
H      -43.53440000     -37.99240000     -72.69890000
S      -45.65990000     -34.81420000     -67.97060000
S      -45.26990000     -36.63140000     -73.33660000
C      -45.83020000     -33.08970000     -68.67680000
H      -45.66290000     -32.32870000     -67.86410000
H      -44.98650000     -32.95100000     -69.29590000
C      -45.50590000     -34.81830000     -73.57630000
H      -46.30590000     -34.72650000     -74.27710000
H      -44.60900000     -34.42760000     -74.19830000
C      -45.71870000     -34.03550000     -72.27800000
H      -46.41480000     -34.48400000     -71.55500000
H      -44.74470000     -33.84830000     -71.71900000
C      -47.19960000     -32.88500000     -69.31130000
H      -47.95830000     -32.63570000     -68.56020000
H      -47.61820000     -33.79420000     -69.79510000
C      -47.20630000     -31.70000000     -70.31830000
C      -47.31930000     -30.42150000     -69.82770000
C      -46.79140000     -31.72030000     -71.73060000
H      -47.69570000     -30.18000000     -68.79390000
C      -46.86840000     -30.42600000     -72.28270000
C      -46.24940000     -32.64740000     -72.68630000
C      -45.95400000     -32.02350000     -73.85720000
S      -47.25590000     -29.16150000     -71.06910000
S      -46.32500000     -30.35130000     -73.95860000
H      -45.31830000     -32.48250000     -74.74870000
