40
Properties=species:S:1:pos:R:3 #=T CELL(abcABC):=T 1.889726e+02=T 90.00000=T Traj:=T positionsangstrom=T Step:=T 0=T Bead:=T pbc="F F F"
C      -47.99570000     -34.86510000     -69.57770000
C      -48.31770000     -34.89110000     -70.94760000
C      -48.69410000     -33.67720000     -71.56340000
C      -48.62190000     -32.47670000     -70.89240000
C      -48.17200000     -32.47570000     -69.56410000
C      -47.81320000     -33.64970000     -68.92750000
H      -47.81130000     -35.87070000     -69.02130000
H      -48.83560000     -33.77060000     -72.61480000
H      -47.94840000     -31.50670000     -69.14810000
H      -47.68590000     -33.55160000     -67.85310000
C      -48.79840000     -31.18240000     -71.64450000
H      -48.94230000     -30.41540000     -70.90400000
H      -49.64010000     -31.10970000     -72.32650000
C      -48.33290000     -36.20490000     -71.69720000
H      -48.23250000     -37.02510000     -71.03570000
H      -49.18170000     -36.30060000     -72.29710000
S      -47.34700000     -30.61920000     -72.78830000
S      -46.97840000     -36.32670000     -73.08160000
C      -45.82380000     -30.84970000     -71.73200000
H      -45.48060000     -29.88900000     -71.34050000
H      -46.04690000     -31.57210000     -70.93660000
C      -45.56680000     -36.07410000     -71.93320000
H      -44.77940000     -36.63940000     -72.35140000
H      -45.75450000     -36.62020000     -70.95660000
C      -45.17290000     -34.64700000     -71.85830000
H      -45.12050000     -34.09650000     -72.81830000
H      -45.88170000     -33.90020000     -71.43010000
C      -44.66140000     -31.44340000     -72.59610000
H      -44.28620000     -30.69860000     -73.37590000
H      -45.08330000     -32.24400000     -73.15160000
C      -43.42940000     -31.81030000     -71.65640000
C      -42.37020000     -30.92820000     -71.49260000
C      -43.13970000     -33.07630000     -71.12830000
H      -42.32650000     -29.88440000     -71.68250000
C      -41.87350000     -33.16160000     -70.49650000
C      -43.79110000     -34.38950000     -71.24580000
C      -42.98950000     -35.39540000     -70.83220000
S      -41.05060000     -31.61660000     -70.49830000
S      -41.44150000     -34.82000000     -70.15340000
H      -43.24390000     -36.44850000     -70.80690000
