40
Properties=species:S:1:pos:R:3 #=T CELL(abcABC):=T 1.889726e+02=T 90.00000=T Traj:=T positionsangstrom=T Step:=T 0=T Bead:=T pbc="F F F"
C      -41.87140000     -34.77400000     -72.19780000
C      -42.92810000     -35.66840000     -71.98360000
C      -43.53020000     -35.62200000     -70.66500000
C      -42.99980000     -34.80540000     -69.66890000
C      -41.93590000     -33.91520000     -69.94370000
C      -41.38280000     -33.88280000     -71.23700000
H      -41.41150000     -34.71540000     -73.18690000
H      -44.42530000     -36.20600000     -70.42690000
H      -41.67770000     -33.13240000     -69.23650000
H      -40.58620000     -33.16170000     -71.57310000
C      -43.46330000     -35.05240000     -68.30200000
H      -43.08920000     -34.25810000     -67.62530000
H      -43.12500000     -35.98610000     -67.97260000
C      -43.45650000     -36.56380000     -73.08040000
H      -43.00630000     -36.41160000     -74.02160000
H      -43.29100000     -37.64530000     -72.82080000
S      -45.30570000     -35.03820000     -67.87620000
S      -45.31410000     -36.68210000     -73.45860000
C      -45.64850000     -33.43240000     -68.64930000
H      -45.53980000     -32.70850000     -67.87190000
H      -44.78410000     -33.25180000     -69.27760000
C      -45.66260000     -34.84760000     -73.76630000
H      -46.53950000     -34.90350000     -74.43360000
H      -44.77400000     -34.53250000     -74.33090000
C      -45.97520000     -34.01040000     -72.54000000
H      -46.73290000     -34.58300000     -72.07510000
H      -45.10580000     -34.09340000     -71.88760000
C      -46.97100000     -33.16010000     -69.43830000
H      -47.80280000     -33.25290000     -68.72540000
H      -47.09100000     -34.03420000     -69.97280000
C      -46.98210000     -31.90820000     -70.22760000
C      -47.33330000     -30.71120000     -69.65230000
C      -46.92250000     -31.79780000     -71.63710000
H      -47.68180000     -30.57980000     -68.61070000
C      -47.19670000     -30.51410000     -72.09750000
C      -46.42290000     -32.63580000     -72.73330000
C      -46.17480000     -31.88700000     -73.90230000
S      -47.58680000     -29.49470000     -70.81450000
S      -46.67140000     -30.22510000     -73.81010000
H      -46.09490000     -32.33440000     -74.81700000
