40
Properties=species:S:1:pos:R:3 #=T CELL(abcABC):=T 1.889726e+02=T 90.00000=T Traj:=T positionsangstrom=T Step:=T 0=T Bead:=T pbc="F F F"
C      -47.77910000     -34.73230000     -69.62880000
C      -48.45040000     -34.85720000     -70.88730000
C      -48.75220000     -33.67060000     -71.57550000
C      -48.71970000     -32.46640000     -70.90890000
C      -48.16960000     -32.39170000     -69.59950000
C      -47.66970000     -33.55350000     -68.93930000
H      -47.39900000     -35.75990000     -69.24040000
H      -49.18070000     -33.73030000     -72.57150000
H      -47.99310000     -31.44740000     -69.07260000
H      -47.02980000     -33.47290000     -68.06760000
C      -48.86590000     -31.14870000     -71.61930000
H      -48.93270000     -30.25900000     -70.92910000
H      -49.73120000     -31.15830000     -72.31860000
C      -48.54330000     -36.16670000     -71.55550000
H      -48.50080000     -37.01000000     -70.81180000
H      -49.47140000     -36.24180000     -72.23590000
S      -47.31640000     -30.96760000     -72.80630000
S      -47.14940000     -36.48130000     -72.79610000
C      -45.94640000     -31.03530000     -71.53850000
H      -46.05580000     -30.15160000     -70.95310000
H      -45.99190000     -31.82580000     -70.74000000
C      -45.53950000     -36.14290000     -71.92380000
H      -44.72250000     -36.75380000     -72.34580000
H      -45.60880000     -36.30790000     -70.85660000
C      -45.05710000     -34.63910000     -71.99930000
H      -45.07440000     -34.45930000     -73.01280000
H      -45.77560000     -34.05750000     -71.46110000
C      -44.65640000     -31.14600000     -72.40810000
H      -44.36910000     -30.16320000     -72.73800000
H      -44.76790000     -31.68000000     -73.36680000
C      -43.40370000     -31.67100000     -71.77140000
C      -42.38620000     -30.80120000     -71.35930000
C      -43.11800000     -33.03430000     -71.34820000
H      -42.32150000     -29.73390000     -71.60420000
C      -41.81160000     -33.14090000     -70.82800000
C      -43.71600000     -34.36610000     -71.36000000
C      -42.90140000     -35.31660000     -70.82220000
S      -41.00080000     -31.61170000     -70.62510000
S      -41.38300000     -34.69800000     -70.22520000
H      -43.26300000     -36.29970000     -70.49950000
