40
Properties=species:S:1:pos:R:3 #=T CELL(abcABC):=T 1.889726e+02=T 90.00000=T Traj:=T positionsangstrom=T Step:=T 0=T Bead:=T pbc="F F F"
C      -41.91130000     -34.93880000     -71.70880000
C      -42.95920000     -35.90210000     -71.56380000
C      -43.77880000     -35.83220000     -70.44840000
C      -43.42360000     -35.04660000     -69.34740000
C      -42.36080000     -34.10380000     -69.45820000
C      -41.66060000     -34.04670000     -70.66040000
H      -41.28240000     -34.93990000     -72.59190000
H      -44.69330000     -36.43600000     -70.34530000
H      -41.97960000     -33.56680000     -68.57780000
H      -40.79840000     -33.44340000     -70.75090000
C      -44.03300000     -35.34950000     -68.04480000
H      -43.41570000     -34.81360000     -67.36490000
H      -43.82410000     -36.42990000     -67.84640000
C      -43.27900000     -36.87450000     -72.72680000
H      -42.43630000     -36.62540000     -73.43340000
H      -43.07740000     -37.84370000     -72.43200000
S      -45.82460000     -34.88760000     -67.98110000
S      -45.06030000     -36.73890000     -73.36540000
C      -45.79380000     -33.24830000     -68.90130000
H      -45.37700000     -32.47500000     -68.25880000
H      -45.06230000     -33.29840000     -69.74440000
C      -45.25490000     -34.91550000     -73.68100000
H      -45.92130000     -34.85770000     -74.53740000
H      -44.29040000     -34.37180000     -73.73610000
C      -46.04340000     -34.18000000     -72.51310000
H      -47.06590000     -34.64130000     -72.48030000
H      -45.70750000     -34.23460000     -71.45010000
C      -47.13720000     -32.80560000     -69.41790000
H      -47.72510000     -32.48230000     -68.54860000
H      -47.65520000     -33.62910000     -69.92020000
C      -47.02160000     -31.63700000     -70.35700000
C      -47.23880000     -30.36160000     -69.94930000
C      -46.66470000     -31.63770000     -71.81390000
H      -47.62580000     -30.01910000     -68.94090000
C      -46.72890000     -30.40560000     -72.41970000
C      -46.19490000     -32.64390000     -72.80290000
C      -46.01240000     -32.05990000     -74.04270000
S      -47.20160000     -29.14240000     -71.27570000
S      -46.51980000     -30.34270000     -74.13040000
H      -45.84070000     -32.59580000     -74.88580000
