40
Properties=species:S:1:pos:R:3 #=T CELL(abcABC):=T 1.889726e+02=T 90.00000=T Traj:=T positionsangstrom=T Step:=T 0=T Bead:=T pbc="F F F"
C      -41.77190000     -35.00340000     -71.42360000
C      -42.85350000     -35.87610000     -71.29020000
C      -43.71960000     -35.84900000     -70.15680000
C      -43.44770000     -34.90300000     -69.16150000
C      -42.38770000     -34.00210000     -69.34430000
C      -41.54660000     -34.06100000     -70.46010000
H      -41.12740000     -35.05830000     -72.26410000
H      -44.54970000     -36.52790000     -70.09840000
H      -42.23240000     -33.17820000     -68.65620000
H      -40.76480000     -33.30190000     -70.61130000
C      -44.30820000     -34.88610000     -67.90290000
H      -44.26790000     -33.93390000     -67.24110000
H      -44.05820000     -35.79150000     -67.31580000
C      -43.20030000     -36.88970000     -72.35230000
H      -42.41970000     -37.07540000     -73.12780000
H      -43.33610000     -37.89680000     -71.74170000
S      -46.14020000     -35.00860000     -68.21220000
S      -44.72860000     -36.60910000     -73.33530000
C      -46.24240000     -33.34350000     -69.11450000
H      -45.83690000     -32.61250000     -68.44810000
H      -45.46150000     -33.36880000     -70.00790000
C      -44.91160000     -34.72180000     -73.47640000
H      -45.08340000     -34.47650000     -74.50900000
H      -43.92520000     -34.29070000     -73.28400000
C      -45.93040000     -34.13460000     -72.53980000
H      -46.90100000     -34.50640000     -72.85680000
H      -45.69640000     -34.47710000     -71.50150000
C      -47.57370000     -32.87040000     -69.72170000
H      -48.25380000     -32.69010000     -68.90880000
H      -48.01270000     -33.69780000     -70.28210000
C      -47.45220000     -31.73010000     -70.67500000
C      -47.89410000     -30.48710000     -70.26450000
C      -46.78170000     -31.72060000     -71.99610000
H      -48.46430000     -30.25500000     -69.41370000
C      -46.76720000     -30.43450000     -72.51000000
C      -46.03110000     -32.65200000     -72.82220000
C      -45.39660000     -32.06210000     -73.86890000
S      -47.47220000     -29.28460000     -71.43980000
S      -45.95310000     -30.37980000     -74.08640000
H      -44.74440000     -32.45000000     -74.62220000
