40
Properties=species:S:1:pos:R:3 #=T CELL(abcABC):=T 1.889726e+02=T 90.00000=T Traj:=T positionsangstrom=T Step:=T 0=T Bead:=T pbc="F F F"
C      -42.32670000     -34.41720000     -71.37160000
C      -42.97330000     -35.65770000     -71.15260000
C      -43.38970000     -35.91980000     -69.82890000
C      -43.48360000     -34.88600000     -68.85730000
C      -42.85060000     -33.69270000     -69.13680000
C      -42.17570000     -33.50780000     -70.36990000
H      -41.89730000     -34.25440000     -72.37730000
H      -43.72280000     -36.93010000     -69.71500000
H      -42.87190000     -32.82070000     -68.50520000
H      -41.70680000     -32.58880000     -70.55650000
C      -44.27170000     -35.00000000     -67.65340000
H      -44.00480000     -34.28820000     -66.90590000
H      -43.99750000     -35.95670000     -67.17920000
C      -42.96800000     -36.61760000     -72.26470000
H      -42.29700000     -36.18170000     -73.07410000
H      -42.50540000     -37.71780000     -72.00940000
S      -46.08210000     -34.76830000     -68.04670000
S      -44.63040000     -36.80500000     -73.10100000
C      -46.17910000     -33.25580000     -69.10680000
H      -46.01720000     -32.39670000     -68.45360000
H      -45.37240000     -33.33540000     -69.81080000
C      -44.93050000     -35.04520000     -73.58730000
H      -45.69540000     -35.00720000     -74.34560000
H      -44.07810000     -34.56810000     -74.05830000
C      -45.49770000     -34.21060000     -72.47650000
H      -46.41900000     -34.70090000     -72.05540000
H      -44.77810000     -34.12170000     -71.63140000
C      -47.53870000     -33.01120000     -69.82510000
H      -48.28000000     -32.75270000     -69.11180000
H      -47.95310000     -33.86730000     -70.33800000
C      -47.37840000     -31.86200000     -70.83940000
C      -48.00060000     -30.68020000     -70.58440000
C      -46.60290000     -31.85220000     -72.13990000
H      -48.60040000     -30.48970000     -69.76140000
C      -46.77400000     -30.56980000     -72.73720000
C      -45.81910000     -32.77980000     -72.88160000
C      -45.26300000     -32.13300000     -73.96670000
S      -47.78180000     -29.48090000     -71.88470000
S      -45.73110000     -30.46170000     -74.16060000
H      -44.66610000     -32.47260000     -74.78590000
