40
Properties=species:S:1:pos:R:3 #=T CELL(abcABC):=T 1.889726e+02=T 90.00000=T Traj:=T positionsangstrom=T Step:=T 0=T Bead:=T pbc="F F F"
C      -41.90760000     -34.93350000     -71.32520000
C      -42.96240000     -35.87480000     -71.28520000
C      -43.76060000     -35.83740000     -70.13530000
C      -43.57960000     -34.86840000     -69.13350000
C      -42.48140000     -33.98210000     -69.22490000
C      -41.64570000     -33.97680000     -70.30410000
H      -41.12750000     -35.00180000     -72.11660000
H      -44.69170000     -36.37540000     -70.01800000
H      -42.30240000     -33.27500000     -68.43910000
H      -40.77230000     -33.39000000     -70.37910000
C      -44.36470000     -34.99120000     -67.86450000
H      -43.87310000     -34.36170000     -67.07860000
H      -44.31380000     -35.99650000     -67.30530000
C      -43.10650000     -36.83350000     -72.36190000
H      -42.25220000     -36.70060000     -73.11930000
H      -43.06680000     -37.88540000     -72.09100000
S      -46.17690000     -34.65520000     -67.99350000
S      -44.65860000     -36.62490000     -73.33450000
C      -46.36970000     -33.06740000     -68.93560000
H      -46.51960000     -32.17820000     -68.23050000
H      -45.47510000     -32.94670000     -69.37730000
C      -45.06830000     -34.87710000     -73.69170000
H      -45.58860000     -34.80170000     -74.62130000
H      -44.17090000     -34.29770000     -73.90100000
C      -45.78260000     -34.18030000     -72.53710000
H      -46.73890000     -34.59510000     -72.31750000
H      -45.24600000     -34.34320000     -71.62340000
C      -47.47290000     -33.11640000     -69.97860000
H      -48.39240000     -33.23120000     -69.47380000
H      -47.25230000     -34.00920000     -70.57870000
C      -47.42190000     -31.91300000     -70.86520000
C      -48.04100000     -30.73350000     -70.43210000
C      -46.72540000     -31.76940000     -72.07960000
H      -48.66350000     -30.53200000     -69.54780000
C      -46.59580000     -30.47910000     -72.54770000
C      -45.88570000     -32.71050000     -72.84770000
C      -45.30650000     -32.03180000     -73.92160000
S      -47.58150000     -29.44260000     -71.48510000
S      -45.78000000     -30.33100000     -74.11410000
H      -44.66170000     -32.38930000     -74.67510000
