40
Properties=species:S:1:pos:R:3 #=T CELL(abcABC):=T 1.889726e+02=T 90.00000=T Traj:=T positionsangstrom=T Step:=T 0=T Bead:=T pbc="F F F"
C      -42.30550000     -35.01490000     -72.78480000
C      -43.23100000     -35.10390000     -71.72900000
C      -44.60180000     -34.93010000     -72.02950000
C      -45.09570000     -34.76280000     -73.34730000
C      -44.14630000     -34.78480000     -74.36390000
C      -42.77190000     -34.95040000     -74.10080000
H      -41.24410000     -35.26030000     -72.63400000
H      -45.28310000     -34.97240000     -71.19880000
H      -44.41200000     -34.63990000     -75.43680000
H      -42.11130000     -35.09320000     -74.91190000
C      -46.47540000     -34.36020000     -73.53680000
H      -47.08160000     -34.34810000     -72.57340000
H      -46.96190000     -35.13840000     -74.23260000
C      -42.75960000     -35.22320000     -70.34400000
H      -43.55620000     -35.53760000     -69.69140000
H      -41.84560000     -35.86770000     -70.20050000
S      -46.51570000     -32.72590000     -74.49320000
S      -42.07150000     -33.53570000     -69.80220000
C      -45.54540000     -31.55870000     -73.45390000
H      -44.72490000     -32.22670000     -73.03700000
H      -45.21610000     -30.75330000     -74.12880000
C      -42.99920000     -32.22380000     -70.77910000
H      -43.46220000     -32.66370000     -71.63250000
H      -42.34240000     -31.39400000     -71.11940000
C      -43.99040000     -31.47390000     -69.91430000
H      -43.43710000     -31.13730000     -69.06420000
H      -44.39050000     -30.66000000     -70.54900000
C      -46.35960000     -30.88890000     -72.31230000
H      -47.11550000     -30.20520000     -72.74300000
H      -45.68970000     -30.20140000     -71.82710000
C      -47.00190000     -31.82160000     -71.34480000
C      -48.24500000     -32.24300000     -71.58690000
C      -46.42360000     -32.42080000     -70.17300000
H      -48.83500000     -31.85660000     -72.37590000
C      -47.23240000     -33.34450000     -69.56580000
C      -45.14210000     -32.30300000     -69.41280000
C      -45.08700000     -33.17570000     -68.32930000
S      -48.79800000     -33.48020000     -70.28970000
S      -46.56260000     -34.07270000     -68.10000000
H      -44.17740000     -33.16590000     -67.65910000
