40
Properties=species:S:1:pos:R:3 #=T CELL(abcABC):=T 1.889726e+02=T 90.00000=T Traj:=T positionsangstrom=T Step:=T 0=T Bead:=T pbc="F F F"
C      -42.20560000     -34.48370000     -71.32880000
C      -42.94580000     -35.69130000     -71.15710000
C      -43.62600000     -35.84080000     -69.96280000
C      -43.49340000     -34.93000000     -68.91300000
C      -42.75030000     -33.78030000     -69.10670000
C      -42.07330000     -33.53420000     -70.31350000
H      -41.70170000     -34.38660000     -72.25030000
H      -44.36340000     -36.65070000     -69.96400000
H      -42.66770000     -33.08090000     -68.26870000
H      -41.48520000     -32.57940000     -70.48380000
C      -44.34590000     -35.06450000     -67.69950000
H      -44.00740000     -34.47220000     -66.79410000
H      -44.34730000     -36.16530000     -67.48960000
C      -43.09440000     -36.77840000     -72.22360000
H      -42.20780000     -36.83070000     -72.71900000
H      -43.27910000     -37.82160000     -71.76510000
S      -46.08410000     -34.71340000     -68.08250000
S      -44.69190000     -36.75090000     -73.09490000
C      -46.02970000     -33.16120000     -69.07370000
H      -46.01960000     -32.24980000     -68.46930000
H      -45.05490000     -33.09450000     -69.73580000
C      -45.08620000     -35.03400000     -73.69850000
H      -45.65010000     -35.10720000     -74.60050000
H      -44.07540000     -34.54990000     -73.94220000
C      -45.79400000     -34.17670000     -72.62610000
H      -46.76740000     -34.50130000     -72.43940000
H      -45.24410000     -34.28250000     -71.66650000
C      -47.25150000     -33.13540000     -70.02220000
H      -48.16530000     -33.14750000     -69.41360000
H      -47.27260000     -34.09220000     -70.47480000
C      -47.31050000     -31.91940000     -70.88850000
C      -48.07160000     -30.82690000     -70.66930000
C      -46.43280000     -31.75900000     -72.02660000
H      -48.65950000     -30.77520000     -69.80010000
C      -46.63420000     -30.52890000     -72.61520000
C      -45.75890000     -32.70380000     -72.87970000
C      -45.27960000     -32.08160000     -73.95970000
S      -47.71300000     -29.53070000     -71.75040000
S      -45.79880000     -30.33840000     -74.10820000
H      -44.76250000     -32.51800000     -74.81660000
