40
Properties=species:S:1:pos:R:3 #=T CELL(abcABC):=T 1.889726e+02=T 90.00000=T Traj:=T positionsangstrom=T Step:=T 0=T Bead:=T pbc="F F F"
C      -49.21690000     -32.52120000     -69.79400000
C      -47.94340000     -32.59780000     -69.17110000
C      -46.88890000     -31.70540000     -69.54820000
C      -47.14520000     -30.63480000     -70.40730000
C      -48.38890000     -30.57350000     -71.05160000
C      -49.44470000     -31.53660000     -70.76260000
H      -49.97840000     -33.17300000     -69.42570000
H      -45.99400000     -31.87830000     -69.03740000
H      -48.53420000     -29.72200000     -71.67930000
H      -50.38770000     -31.44190000     -71.29340000
C      -46.20890000     -29.52260000     -70.59240000
H      -45.48560000     -29.43630000     -69.74630000
H      -46.75290000     -28.57750000     -70.71970000
C      -47.71700000     -33.70260000     -68.18390000
H      -46.65800000     -33.60770000     -67.78010000
H      -48.42350000     -33.72600000     -67.36480000
S      -45.21210000     -29.67500000     -72.19870000
S      -47.86080000     -35.29720000     -69.08170000
C      -44.91890000     -31.42880000     -72.33530000
H      -45.82170000     -32.00750000     -72.54130000
H      -44.20650000     -31.60090000     -73.26900000
C      -46.21530000     -35.51460000     -69.92360000
H      -46.03340000     -36.53110000     -69.85740000
H      -45.48420000     -34.96420000     -69.31740000
C      -46.11330000     -35.07750000     -71.39960000
H      -46.85770000     -35.47410000     -72.04670000
H      -46.31170000     -33.99210000     -71.44970000
C      -44.07250000     -32.05980000     -71.20100000
H      -44.64030000     -32.29620000     -70.30900000
H      -43.44460000     -31.27540000     -70.74590000
C      -43.21510000     -33.19300000     -71.75170000
C      -41.87740000     -32.98400000     -72.08780000
C      -43.58350000     -34.58890000     -72.13010000
H      -41.30370000     -32.06130000     -71.82950000
C      -42.62010000     -35.20440000     -72.91740000
C      -44.77070000     -35.41330000     -72.06000000
C      -44.53610000     -36.68020000     -72.61680000
S      -41.19020000     -34.26050000     -73.01650000
S      -42.95830000     -36.87970000     -73.32580000
H      -45.29980000     -37.51680000     -72.67190000
