40
Properties=species:S:1:pos:R:3 #=T CELL(abcABC):=T 1.889726e+02=T 90.00000=T Traj:=T positionsangstrom=T Step:=T 0=T Bead:=T pbc="F F F"
C      -42.44690000     -35.27090000     -72.82290000
C      -43.30300000     -35.01370000     -71.76480000
C      -44.64760000     -34.73750000     -72.09330000
C      -45.11630000     -34.66880000     -73.43760000
C      -44.16430000     -34.86670000     -74.43450000
C      -42.82970000     -35.21660000     -74.14260000
H      -41.43370000     -35.42770000     -72.47260000
H      -45.37540000     -34.80710000     -71.25930000
H      -44.45900000     -34.67310000     -75.50670000
H      -42.05410000     -35.37380000     -74.86620000
C      -46.56300000     -34.33850000     -73.75290000
H      -47.20060000     -34.32610000     -72.89950000
H      -46.97070000     -35.00910000     -74.41700000
C      -42.84790000     -35.04080000     -70.27690000
H      -43.80270000     -35.27700000     -69.70490000
H      -42.15850000     -35.80790000     -70.14550000
S      -46.63980000     -32.71010000     -74.68520000
S      -41.84960000     -33.55660000     -69.81040000
C      -45.64180000     -31.50460000     -73.60460000
H      -44.72840000     -32.01500000     -73.27520000
H      -45.21730000     -30.76820000     -74.29030000
C      -42.80770000     -32.13610000     -70.52450000
H      -43.00250000     -32.50050000     -71.54080000
H      -42.05110000     -31.34400000     -70.66710000
C      -43.89460000     -31.43880000     -69.61710000
H      -43.28370000     -31.21600000     -68.71740000
H      -43.93660000     -30.37690000     -69.97000000
C      -46.48130000     -30.90300000     -72.34360000
H      -47.28580000     -30.37670000     -72.82660000
H      -45.88660000     -30.25670000     -71.71230000
C      -47.00910000     -31.94830000     -71.35280000
C      -48.24300000     -32.47140000     -71.50620000
C      -46.36200000     -32.49030000     -70.14720000
H      -48.74840000     -32.50560000     -72.47680000
C      -47.20160000     -33.33560000     -69.49210000
C      -45.18560000     -32.19310000     -69.30730000
C      -45.13370000     -32.99730000     -68.18540000
S      -48.72630000     -33.60250000     -70.30640000
S      -46.55740000     -33.95460000     -68.02200000
H      -44.30480000     -32.91180000     -67.44940000
