40
Properties=species:S:1:pos:R:3 #=T CELL(abcABC):=T 1.889726e+02=T 90.00000=T Traj:=T positionsangstrom=T Step:=T 0=T Bead:=T pbc="F F F"
C      -42.35940000     -34.90790000     -73.07600000
C      -43.24550000     -35.12160000     -71.98930000
C      -44.54940000     -35.03650000     -72.21970000
C      -45.07360000     -34.87740000     -73.47200000
C      -44.23280000     -34.90120000     -74.55200000
C      -42.82610000     -34.84020000     -74.37210000
H      -41.27130000     -35.04560000     -73.03960000
H      -45.24910000     -34.97590000     -71.38560000
H      -44.65730000     -34.72760000     -75.55550000
H      -42.22180000     -34.55100000     -75.28730000
C      -46.58110000     -34.64470000     -73.77280000
H      -47.17790000     -34.83770000     -72.90130000
H      -47.01150000     -35.47180000     -74.40520000
C      -42.71160000     -35.03550000     -70.54140000
H      -43.47530000     -35.33540000     -69.78800000
H      -41.94240000     -35.72110000     -70.38040000
S      -46.92930000     -32.94250000     -74.46730000
S      -42.14440000     -33.37760000     -69.98190000
C      -46.03340000     -31.72300000     -73.45430000
H      -45.26950000     -32.28190000     -72.96890000
H      -45.57360000     -30.99720000     -74.12530000
C      -43.00250000     -32.15030000     -71.09150000
H      -43.50160000     -32.69730000     -71.82950000
H      -42.25170000     -31.54410000     -71.62470000
C      -43.97710000     -31.21690000     -70.31280000
H      -43.41010000     -30.70250000     -69.53090000
H      -44.42830000     -30.61300000     -71.09430000
C      -46.89910000     -31.01860000     -72.37550000
H      -47.90880000     -30.79590000     -72.72820000
H      -46.42240000     -30.11360000     -72.06630000
C      -47.21210000     -32.00100000     -71.17930000
C      -48.44130000     -32.61050000     -71.07500000
C      -46.33660000     -32.44000000     -70.08350000
H      -49.21430000     -32.41600000     -71.79530000
C      -46.94640000     -33.29330000     -69.20770000
C      -44.98200000     -32.08710000     -69.53150000
C      -44.71310000     -32.66010000     -68.33670000
S      -48.51730000     -33.78260000     -69.80550000
S      -45.99720000     -33.71330000     -67.75760000
H      -43.89170000     -32.46290000     -67.62480000
