40
Properties=species:S:1:pos:R:3 #=T CELL(abcABC):=T 1.889726e+02=T 90.00000=T Traj:=T positionsangstrom=T Step:=T 0=T Bead:=T pbc="F F F"
C      -42.46220000     -35.34840000     -72.94900000
C      -43.35390000     -35.11390000     -71.89220000
C      -44.71420000     -34.84700000     -72.19960000
C      -45.08890000     -34.67540000     -73.54020000
C      -44.13330000     -34.74030000     -74.59230000
C      -42.85910000     -35.09920000     -74.27170000
H      -41.42770000     -35.35580000     -72.77950000
H      -45.36120000     -34.69960000     -71.38800000
H      -44.50070000     -34.55900000     -75.56960000
H      -42.16500000     -35.38600000     -75.03900000
C      -46.60150000     -34.41270000     -73.82130000
H      -47.28450000     -34.50000000     -72.96340000
H      -46.76670000     -35.14920000     -74.60610000
C      -42.94760000     -35.09590000     -70.49050000
H      -43.77500000     -35.14770000     -69.74500000
H      -42.26720000     -35.92840000     -70.41000000
S      -46.81450000     -32.71970000     -74.60070000
S      -42.16560000     -33.39750000     -70.13490000
C      -45.96500000     -31.63720000     -73.39700000
H      -45.08190000     -32.09570000     -73.01500000
H      -45.66920000     -30.79310000     -73.88770000
C      -43.17190000     -32.17550000     -71.05970000
H      -43.81240000     -32.73770000     -71.73190000
H      -42.51740000     -31.56440000     -71.69390000
C      -43.94540000     -31.18010000     -70.19240000
H      -43.34020000     -30.54070000     -69.56180000
H      -44.25480000     -30.33580000     -70.93750000
C      -46.75130000     -31.14090000     -72.21850000
H      -47.61180000     -30.46590000     -72.47490000
H      -46.16040000     -30.37010000     -71.71430000
C      -47.10410000     -32.14310000     -71.21010000
C      -48.27590000     -32.88390000     -71.22080000
C      -46.31070000     -32.37590000     -70.06110000
H      -49.04920000     -32.75170000     -71.97710000
C      -46.95850000     -33.30710000     -69.18730000
C      -45.06980000     -31.98690000     -69.46940000
C      -44.74360000     -32.60200000     -68.27900000
S      -48.45260000     -33.90710000     -69.79740000
S      -46.02910000     -33.73050000     -67.73140000
H      -43.87600000     -32.47830000     -67.65930000
