40
Properties=species:S:1:pos:R:3 #=T CELL(abcABC):=T 1.889726e+02=T 90.00000=T Traj:=T positionsangstrom=T Step:=T 0=T Bead:=T pbc="F F F"
C      -42.42730000     -34.88890000     -73.46190000
C      -42.96640000     -34.66860000     -72.15760000
C      -44.34170000     -34.68820000     -72.00760000
C      -45.20910000     -35.07340000     -73.06410000
C      -44.68020000     -35.31620000     -74.33600000
C      -43.27340000     -35.28060000     -74.52170000
H      -41.41540000     -34.65590000     -73.70030000
H      -44.74810000     -34.44120000     -71.07170000
H      -45.22170000     -35.60800000     -75.22300000
H      -42.83920000     -35.58240000     -75.48720000
C      -46.72320000     -35.08490000     -72.90210000
H      -47.00000000     -34.99790000     -71.84930000
H      -47.16410000     -36.02260000     -73.19350000
C      -42.09300000     -34.20230000     -71.01760000
H      -42.63360000     -34.32830000     -70.09910000
H      -41.20380000     -34.72340000     -70.92430000
S      -47.51070000     -33.72310000     -73.91160000
S      -41.65230000     -32.40310000     -70.94460000
C      -46.55290000     -32.18760000     -73.43860000
H      -45.52620000     -32.41840000     -73.19750000
H      -46.45880000     -31.52640000     -74.34670000
C      -43.27150000     -31.55020000     -71.46920000
H      -43.79520000     -32.28130000     -72.05080000
H      -42.97560000     -30.81750000     -72.21350000
C      -44.15310000     -30.93710000     -70.37590000
H      -43.59890000     -30.39460000     -69.63060000
H      -44.80760000     -30.20470000     -70.82450000
C      -47.17940000     -31.39180000     -72.32250000
H      -48.15870000     -31.05990000     -72.55750000
H      -46.49520000     -30.51620000     -72.26190000
C      -47.28680000     -32.14530000     -70.96820000
C      -48.54080000     -32.72520000     -70.75810000
C      -46.25200000     -32.43320000     -69.98140000
H      -49.40460000     -32.34330000     -71.34210000
C      -46.78360000     -33.37930000     -69.09250000
C      -44.90260000     -32.01600000     -69.63220000
C      -44.40800000     -32.71220000     -68.57530000
S      -48.41250000     -33.83790000     -69.42920000
S      -45.60240000     -33.83550000     -67.94110000
H      -43.49610000     -32.51970000     -68.02260000
