40
Properties=species:S:1:pos:R:3 #=T CELL(abcABC):=T 1.889726e+02=T 90.00000=T Traj:=T positionsangstrom=T Step:=T 0=T Bead:=T pbc="F F F"
C      -44.87230000     -30.55890000     -68.21100000
C      -45.48780000     -31.82330000     -68.09360000
C      -44.78060000     -33.00290000     -68.21010000
C      -43.35530000     -32.98510000     -68.33300000
C      -42.71660000     -31.73000000     -68.41080000
C      -43.49970000     -30.58300000     -68.35480000
H      -45.49150000     -29.68380000     -68.16980000
H      -45.21000000     -34.00040000     -68.07360000
H      -41.61770000     -31.71360000     -68.49610000
H      -42.93300000     -29.63510000     -68.40470000
C      -42.49500000     -34.19450000     -68.30360000
H      -42.48360000     -34.58410000     -67.23330000
H      -41.50530000     -34.05320000     -68.70580000
C      -47.03570000     -31.77040000     -67.93860000
H      -47.33560000     -32.18570000     -66.92510000
H      -47.39490000     -30.72470000     -67.99770000
S      -43.16810000     -35.61870000     -69.29890000
S      -47.86600000     -32.98190000     -69.05950000
C      -43.03300000     -34.92230000     -71.00300000
H      -42.60090000     -33.85990000     -70.98120000
H      -42.39670000     -35.50470000     -71.66510000
C      -47.55250000     -32.45350000     -70.79570000
H      -46.61190000     -31.96020000     -70.89310000
H      -48.26620000     -31.75800000     -71.13380000
C      -47.53050000     -33.63650000     -71.62680000
H      -46.86090000     -34.38420000     -71.29890000
H      -48.52010000     -34.14210000     -71.57930000
C      -44.40940000     -34.72280000     -71.57600000
H      -44.92540000     -33.90240000     -70.99480000
H      -45.11910000     -35.59160000     -71.33040000
C      -44.66840000     -34.39930000     -73.04730000
C      -43.67120000     -34.43300000     -73.96240000
C      -45.88900000     -33.87560000     -73.58140000
H      -42.64270000     -34.79540000     -73.82560000
C      -45.83930000     -33.66250000     -74.95300000
C      -47.20980000     -33.49100000     -73.08860000
C      -48.09420000     -33.03790000     -74.05450000
S      -44.21900000     -34.07280000     -75.59890000
S      -47.38590000     -33.12080000     -75.60910000
H      -49.11860000     -32.83700000     -73.85480000
