40
Properties=species:S:1:pos:R:3 #=T CELL(abcABC):=T 1.889726e+02=T 90.00000=T Traj:=T positionsangstrom=T Step:=T 0=T Bead:=T pbc="F F F"
C      -42.40610000     -34.93760000     -73.42540000
C      -42.99040000     -34.50870000     -72.22270000
C      -44.40310000     -34.53060000     -72.03630000
C      -45.22730000     -34.94390000     -73.01750000
C      -44.70760000     -35.40150000     -74.20420000
C      -43.31720000     -35.46430000     -74.38430000
H      -41.35220000     -35.06360000     -73.67250000
H      -44.75730000     -34.07810000     -71.11250000
H      -45.37660000     -35.74560000     -74.91890000
H      -43.00520000     -35.62050000     -75.45990000
C      -46.73490000     -34.91300000     -72.83220000
H      -46.97950000     -34.56610000     -71.83980000
H      -47.23100000     -35.87010000     -73.09560000
C      -42.02660000     -34.08360000     -71.02050000
H      -42.38730000     -34.35300000     -69.98350000
H      -41.03990000     -34.48220000     -71.26560000
S      -47.57800000     -33.70450000     -73.94460000
S      -41.71430000     -32.23340000     -71.10700000
C      -46.69070000     -32.15500000     -73.45240000
H      -45.62970000     -32.36800000     -73.32340000
H      -46.74150000     -31.41920000     -74.26150000
C      -43.25600000     -31.35070000     -71.64110000
H      -43.78110000     -31.98750000     -72.34880000
H      -42.89550000     -30.37200000     -72.12720000
C      -44.23180000     -30.93110000     -70.48460000
H      -43.60100000     -30.35700000     -69.77990000
H      -44.98900000     -30.27540000     -70.96710000
C      -47.28680000     -31.50470000     -72.22810000
H      -48.25490000     -31.11180000     -72.53740000
H      -46.64180000     -30.65180000     -72.07450000
C      -47.33840000     -32.40650000     -70.99730000
C      -48.47460000     -33.12600000     -70.78430000
C      -46.27510000     -32.54160000     -70.03390000
H      -49.28160000     -33.24340000     -71.44480000
C      -46.72270000     -33.39250000     -68.97420000
C      -44.92000000     -32.01830000     -69.76680000
C      -44.41090000     -32.56220000     -68.65370000
S      -48.32690000     -34.08110000     -69.28520000
S      -45.40440000     -33.76430000     -67.84610000
H      -43.43900000     -32.31400000     -68.25780000
