40
Properties=species:S:1:pos:R:3 #=T CELL(abcABC):=T 1.889726e+02=T 90.00000=T Traj:=T positionsangstrom=T Step:=T 0=T Bead:=T pbc="F F F"
C      -47.99450000     -34.80780000     -69.02880000
C      -48.29850000     -34.90370000     -70.41000000
C      -48.34970000     -33.75600000     -71.23580000
C      -48.36110000     -32.48410000     -70.66120000
C      -48.04720000     -32.40050000     -69.30190000
C      -47.95550000     -33.54690000     -68.49310000
H      -47.91840000     -35.68970000     -68.36290000
H      -48.50670000     -33.90680000     -72.33730000
H      -48.08030000     -31.37650000     -68.91430000
H      -47.83360000     -33.40050000     -67.42550000
C      -48.65590000     -31.22240000     -71.46870000
H      -48.49700000     -30.36740000     -70.76620000
H      -49.65860000     -31.25620000     -71.94560000
C      -48.18990000     -36.27610000     -71.05380000
H      -47.81490000     -36.99990000     -70.34130000
H      -49.12150000     -36.57260000     -71.45370000
S      -47.49890000     -31.02750000     -72.93500000
S      -47.15300000     -36.40260000     -72.59270000
C      -45.88370000     -30.98830000     -72.15470000
H      -45.65740000     -29.98130000     -71.78160000
H      -45.99860000     -31.62050000     -71.28320000
C      -45.42910000     -36.18220000     -72.06790000
H      -44.68470000     -36.98010000     -72.26130000
H      -45.49460000     -36.01320000     -70.95600000
C      -44.82420000     -34.86920000     -72.55710000
H      -44.43990000     -34.91000000     -73.53250000
H      -45.54420000     -34.15960000     -72.38900000
C      -44.70680000     -31.57390000     -72.89170000
H      -44.46370000     -30.93100000     -73.80960000
H      -44.99900000     -32.49590000     -73.27780000
C      -43.49840000     -31.77070000     -72.09150000
C      -42.74050000     -30.75190000     -71.54590000
C      -42.96490000     -33.08710000     -71.67700000
H      -43.02900000     -29.74110000     -71.67000000
C      -41.87530000     -33.00800000     -70.87190000
C      -43.53990000     -34.42980000     -71.79970000
C      -42.82180000     -35.25730000     -71.00200000
S      -41.34160000     -31.32680000     -70.58720000
S      -41.40450000     -34.54650000     -70.23520000
H      -43.07700000     -36.25480000     -70.72340000
