40
Properties=species:S:1:pos:R:3 #=T CELL(abcABC):=T 1.889726e+02=T 90.00000=T Traj:=T positionsangstrom=T Step:=T 0=T Bead:=T pbc="F F F"
C      -42.30610000     -34.73760000     -73.18010000
C      -43.04020000     -34.77100000     -72.01650000
C      -44.47400000     -34.86970000     -72.06480000
C      -45.13810000     -34.84140000     -73.31600000
C      -44.35330000     -34.91180000     -74.44070000
C      -42.92890000     -34.92080000     -74.38220000
H      -41.23970000     -34.60390000     -73.01600000
H      -45.14490000     -34.70450000     -71.17490000
H      -44.84190000     -34.87780000     -75.42060000
H      -42.38730000     -34.73730000     -75.32190000
C      -46.62690000     -34.89320000     -73.32470000
H      -46.96580000     -35.03630000     -72.23010000
H      -47.06700000     -35.82220000     -73.80920000
C      -42.43540000     -34.59780000     -70.64900000
H      -43.16020000     -34.62040000     -69.84560000
H      -41.70780000     -35.39020000     -70.34450000
S      -47.31760000     -33.40040000     -74.18160000
S      -41.56930000     -33.05030000     -70.43120000
C      -46.32080000     -31.98400000     -73.57850000
H      -45.37330000     -32.44470000     -73.35470000
H      -46.20220000     -31.25770000     -74.36680000
C      -42.77470000     -31.81710000     -71.18200000
H      -43.20460000     -32.21500000     -72.08060000
H      -42.26940000     -30.92910000     -71.59440000
C      -43.93150000     -31.26180000     -70.24600000
H      -43.39720000     -30.87420000     -69.33480000
H      -44.44900000     -30.43600000     -70.77130000
C      -47.01580000     -31.25850000     -72.45210000
H      -47.93190000     -30.80870000     -72.89990000
H      -46.29410000     -30.43220000     -72.21700000
C      -47.26190000     -32.08220000     -71.21950000
C      -48.55920000     -32.56650000     -70.94430000
C      -46.36670000     -32.44440000     -70.14570000
H      -49.42920000     -32.51520000     -71.59600000
C      -46.93010000     -33.35680000     -69.25830000
C      -44.99170000     -32.22630000     -69.72670000
C      -44.68900000     -32.96130000     -68.62000000
S      -48.73890000     -33.47440000     -69.44680000
S      -45.95690000     -33.93650000     -67.93160000
H      -43.73320000     -32.88920000     -68.18580000
