40
Properties=species:S:1:pos:R:3 #=T CELL(abcABC):=T 1.889726e+02=T 90.00000=T Traj:=T positionsangstrom=T Step:=T 0=T Bead:=T pbc="F F F"
C      -42.49230000     -34.52690000     -73.21870000
C      -43.23940000     -34.17370000     -72.08430000
C      -44.42020000     -34.84420000     -71.83570000
C      -45.04330000     -35.56520000     -72.86480000
C      -44.33040000     -35.86160000     -74.00360000
C      -43.02890000     -35.43090000     -74.18070000
H      -41.57680000     -34.03710000     -73.52890000
H      -45.08840000     -34.60370000     -71.04150000
H      -44.69980000     -36.55220000     -74.69020000
H      -42.40560000     -35.53310000     -75.03530000
C      -46.40680000     -36.09610000     -72.70900000
H      -46.64790000     -36.18920000     -71.64770000
H      -46.51700000     -37.15650000     -73.06630000
C      -42.53000000     -33.40570000     -70.98630000
H      -43.08430000     -33.54980000     -70.01290000
H      -41.52950000     -33.68090000     -70.72690000
S      -47.61460000     -35.08750000     -73.69330000
S      -42.30020000     -31.63670000     -71.63980000
C      -46.91030000     -33.32000000     -73.51040000
H      -45.87770000     -33.52380000     -73.32770000
H      -47.04730000     -32.81730000     -74.44810000
C      -43.97840000     -31.17320000     -72.37270000
H      -44.30950000     -32.06890000     -72.95720000
H      -43.66240000     -30.46370000     -73.19560000
C      -44.94550000     -30.45420000     -71.41330000
H      -44.50640000     -29.45410000     -71.12850000
H      -45.91380000     -30.21190000     -71.90180000
C      -47.54830000     -32.45380000     -72.40550000
H      -48.58420000     -32.72140000     -72.52660000
H      -47.42710000     -31.41690000     -72.68700000
C      -47.25500000     -32.81340000     -70.96740000
C      -47.90680000     -33.86190000     -70.40980000
C      -46.31910000     -32.27620000     -70.10580000
H      -48.80800000     -34.35390000     -70.84620000
C      -46.27330000     -32.96120000     -68.85180000
C      -45.25870000     -31.29330000     -70.17530000
C      -44.54780000     -31.18120000     -68.95440000
S      -47.47320000     -34.20490000     -68.70840000
S      -45.12750000     -32.35210000     -67.71510000
H      -43.77590000     -30.54110000     -68.65420000
