40
Properties=species:S:1:pos:R:3 #=T CELL(abcABC):=T 1.889726e+02=T 90.00000=T Traj:=T positionsangstrom=T Step:=T 0=T Bead:=T pbc="F F F"
C      -42.26110000     -34.80160000     -73.10380000
C      -43.03010000     -34.29630000     -72.10070000
C      -44.38680000     -34.71060000     -72.00010000
C      -44.79730000     -35.74670000     -72.83640000
C      -43.97620000     -36.27820000     -73.87610000
C      -42.73410000     -35.69570000     -74.05590000
H      -41.20830000     -34.42420000     -73.19640000
H      -45.01840000     -34.39680000     -71.15540000
H      -44.30470000     -37.05670000     -74.61800000
H      -42.01820000     -36.16340000     -74.79680000
C      -46.20200000     -36.31470000     -72.71050000
H      -46.39910000     -36.24370000     -71.62690000
H      -46.37780000     -37.25070000     -73.21210000
C      -42.52780000     -33.38260000     -71.00680000
H      -43.26380000     -33.28380000     -70.21710000
H      -41.51940000     -33.79270000     -70.63830000
S      -47.68700000     -35.22810000     -73.43120000
S      -42.21430000     -31.64980000     -71.69460000
C      -47.11040000     -33.46660000     -73.55990000
H      -46.04180000     -33.45320000     -73.50660000
H      -47.43050000     -33.12220000     -74.53470000
C      -43.89730000     -31.21550000     -72.41090000
H      -44.36100000     -32.17350000     -72.75360000
H      -43.61150000     -30.54320000     -73.23430000
C      -44.93120000     -30.49100000     -71.59200000
H      -44.55150000     -29.53880000     -71.28990000
H      -45.77960000     -30.24310000     -72.24720000
C      -47.75880000     -32.55290000     -72.53920000
H      -48.82150000     -32.64840000     -72.68050000
H      -47.63200000     -31.53920000     -72.88500000
C      -47.37800000     -32.77770000     -71.05650000
C      -48.11580000     -33.73600000     -70.38250000
C      -46.36070000     -32.21740000     -70.19570000
H      -48.88150000     -34.32580000     -70.79470000
C      -46.42480000     -32.72900000     -68.90070000
C      -45.33790000     -31.11780000     -70.26490000
C      -44.61960000     -30.97910000     -69.02860000
S      -47.60880000     -34.03600000     -68.66200000
S      -45.24010000     -32.01090000     -67.72760000
H      -43.73860000     -30.28480000     -68.90030000
