40
Properties=species:S:1:pos:R:3 #=T CELL(abcABC):=T 1.889726e+02=T 90.00000=T Traj:=T positionsangstrom=T Step:=T 0=T Bead:=T pbc="F F F"
C      -42.50480000     -34.47550000     -73.16870000
C      -43.08880000     -34.35270000     -71.91300000
C      -44.39370000     -34.86610000     -71.75730000
C      -45.03770000     -35.53700000     -72.78950000
C      -44.35570000     -35.70580000     -74.02040000
C      -43.09990000     -35.23310000     -74.20680000
H      -41.44350000     -34.23910000     -73.28950000
H      -44.87340000     -34.85990000     -70.78600000
H      -44.87370000     -36.20740000     -74.83550000
H      -42.54100000     -35.37690000     -75.11730000
C      -46.46580000     -35.98530000     -72.72910000
H      -46.84240000     -35.83760000     -71.74630000
H      -46.57270000     -37.01180000     -73.10310000
C      -42.57760000     -33.32580000     -70.91770000
H      -43.38460000     -33.19710000     -70.20120000
H      -41.60670000     -33.53940000     -70.44820000
S      -47.60390000     -34.94450000     -73.80960000
S      -42.29790000     -31.70890000     -71.72110000
C      -47.09700000     -33.23560000     -73.61690000
H      -45.94410000     -33.23260000     -73.72930000
H      -47.48220000     -32.71040000     -74.48720000
C      -43.94770000     -31.30330000     -72.26960000
H      -44.45760000     -32.26350000     -72.51850000
H      -43.89690000     -30.67810000     -73.14690000
C      -44.79130000     -30.46050000     -71.27790000
H      -44.19890000     -29.65010000     -70.99740000
H      -45.65210000     -30.10000000     -71.87010000
C      -47.58350000     -32.40810000     -72.42480000
H      -48.70530000     -32.51330000     -72.50050000
H      -47.39850000     -31.33520000     -72.59640000
C      -47.30580000     -32.86660000     -70.97990000
C      -47.98280000     -33.83390000     -70.34990000
C      -46.24960000     -32.35540000     -70.06920000
H      -48.83870000     -34.41870000     -70.79430000
C      -46.27370000     -33.04100000     -68.82690000
C      -45.24470000     -31.28270000     -70.10280000
C      -44.52730000     -31.25770000     -68.93350000
S      -47.43930000     -34.28320000     -68.75800000
S      -45.10890000     -32.44230000     -67.74520000
H      -43.72360000     -30.58220000     -68.72710000
