40
Properties=species:S:1:pos:R:3 #=T CELL(abcABC):=T 1.889726e+02=T 90.00000=T Traj:=T positionsangstrom=T Step:=T 0=T Bead:=T pbc="F F F"
C      -42.13420000     -35.00450000     -72.93660000
C      -42.96520000     -34.38070000     -72.00030000
C      -44.25250000     -34.82780000     -71.85680000
C      -44.82880000     -35.70120000     -72.83600000
C      -44.04540000     -36.14270000     -73.93380000
C      -42.68700000     -35.81280000     -73.91960000
H      -41.05200000     -34.76750000     -73.07990000
H      -44.86590000     -34.29920000     -71.15500000
H      -44.34610000     -36.92770000     -74.58430000
H      -42.17590000     -36.20110000     -74.79470000
C      -46.21460000     -36.25560000     -72.67160000
H      -46.40170000     -36.44600000     -71.62490000
H      -46.27110000     -37.28880000     -73.03200000
C      -42.46450000     -33.29930000     -71.04850000
H      -42.96730000     -33.19810000     -70.11600000
H      -41.43680000     -33.47970000     -70.72680000
S      -47.68690000     -35.22640000     -73.35370000
S      -42.38530000     -31.67360000     -71.85760000
C      -46.97920000     -33.57240000     -73.54480000
H      -45.89290000     -33.63870000     -73.22450000
H      -46.99850000     -33.17340000     -74.56000000
C      -44.02260000     -31.40790000     -72.57700000
H      -44.51170000     -32.42210000     -72.70090000
H      -43.91950000     -31.10650000     -73.56520000
C      -44.91110000     -30.53480000     -71.72170000
H      -44.33840000     -29.58810000     -71.53890000
H      -45.80710000     -30.20850000     -72.29610000
C      -47.63000000     -32.48920000     -72.56220000
H      -48.74690000     -32.33110000     -72.72490000
H      -47.07920000     -31.60830000     -72.87030000
C      -47.33740000     -32.90700000     -71.05060000
C      -48.04100000     -33.80000000     -70.26120000
C      -46.39270000     -32.18060000     -70.16700000
H      -48.91140000     -34.35670000     -70.55200000
C      -46.46540000     -32.62950000     -68.85380000
C      -45.30670000     -31.19660000     -70.37380000
C      -44.66180000     -30.95390000     -69.14090000
S      -47.66290000     -33.89640000     -68.57690000
S      -45.25260000     -31.88240000     -67.79490000
H      -43.75740000     -30.27540000     -68.95240000
