40
Properties=species:S:1:pos:R:3 #=T CELL(abcABC):=T 1.889726e+02=T 90.00000=T Traj:=T positionsangstrom=T Step:=T 0=T Bead:=T pbc="F F F"
C      -42.41700000     -34.71230000     -73.17380000
C      -43.05560000     -34.39510000     -71.98420000
C      -44.41560000     -34.74950000     -71.92280000
C      -45.08580000     -35.43510000     -72.93910000
C      -44.36090000     -35.71680000     -74.11270000
C      -43.07970000     -35.26790000     -74.25140000
H      -41.43520000     -34.25810000     -73.24020000
H      -44.95320000     -34.34670000     -71.08340000
H      -44.95370000     -36.06210000     -75.00910000
H      -42.56810000     -35.46110000     -75.20320000
C      -46.54100000     -35.84680000     -72.78470000
H      -46.93730000     -35.85290000     -71.69360000
H      -46.62170000     -36.85980000     -73.17070000
C      -42.47310000     -33.49470000     -70.94900000
H      -42.96950000     -33.48590000     -69.99030000
H      -41.44770000     -33.83170000     -70.78870000
S      -47.59350000     -34.71800000     -73.74760000
S      -42.30080000     -31.73350000     -71.55550000
C      -46.88450000     -33.00830000     -73.44750000
H      -45.83450000     -33.14070000     -73.30640000
H      -47.02100000     -32.49380000     -74.40030000
C      -43.95380000     -31.27110000     -72.27660000
H      -44.39400000     -32.15750000     -72.74260000
H      -43.72380000     -30.54540000     -73.05880000
C      -44.78770000     -30.57310000     -71.23470000
H      -44.17630000     -29.70100000     -70.82370000
H      -45.66920000     -30.10660000     -71.78970000
C      -47.51980000     -32.30140000     -72.30010000
H      -48.58970000     -32.33250000     -72.49070000
H      -47.19590000     -31.28170000     -72.26530000
C      -47.23160000     -32.95960000     -70.98870000
C      -48.00210000     -33.92730000     -70.50050000
C      -46.11970000     -32.50780000     -70.13160000
H      -48.73150000     -34.56340000     -71.00260000
C      -46.27940000     -33.18040000     -68.89040000
C      -45.27020000     -31.40530000     -70.09490000
C      -44.69110000     -31.21820000     -68.88280000
S      -47.55000000     -34.35410000     -68.83080000
S      -45.18080000     -32.43290000     -67.71410000
H      -43.91750000     -30.44090000     -68.65200000
