40
Properties=species:S:1:pos:R:3 #=T CELL(abcABC):=T 1.889726e+02=T 90.00000=T Traj:=T positionsangstrom=T Step:=T 0=T Bead:=T pbc="F F F"
C      -42.24230000     -34.75940000     -73.03020000
C      -42.98800000     -34.41410000     -71.89450000
C      -44.27380000     -34.93690000     -71.68960000
C      -44.86290000     -35.86020000     -72.60530000
C      -44.06010000     -36.22290000     -73.75730000
C      -42.76440000     -35.72200000     -73.90350000
H      -41.23040000     -34.48890000     -73.15960000
H      -44.79810000     -34.78240000     -70.77860000
H      -44.46470000     -36.66680000     -74.62250000
H      -42.24880000     -35.92620000     -74.77640000
C      -46.26770000     -36.16780000     -72.35420000
H      -46.62380000     -36.03230000     -71.29350000
H      -46.46970000     -37.25560000     -72.59950000
C      -42.42340000     -33.31280000     -70.98350000
H      -43.10710000     -33.12320000     -70.11340000
H      -41.43850000     -33.58610000     -70.64460000
S      -47.52030000     -35.36630000     -73.44540000
S      -42.31960000     -31.78200000     -72.02190000
C      -46.94020000     -33.55630000     -73.43800000
H      -45.87020000     -33.56990000     -73.21070000
H      -46.97130000     -33.31060000     -74.52750000
C      -44.02800000     -31.44980000     -72.64420000
H      -44.41650000     -32.47480000     -72.72620000
H      -43.88580000     -30.94990000     -73.63820000
C      -44.87700000     -30.56060000     -71.75850000
H      -44.34210000     -29.65300000     -71.53210000
H      -45.75900000     -30.36720000     -72.34330000
C      -47.67540000     -32.57470000     -72.49320000
H      -48.78730000     -32.64500000     -72.58710000
H      -47.43660000     -31.49820000     -72.65150000
C      -47.37560000     -32.87240000     -71.04410000
C      -48.22210000     -33.65510000     -70.34500000
C      -46.25970000     -32.28720000     -70.27600000
H      -49.09850000     -34.20760000     -70.83910000
C      -46.39250000     -32.67580000     -68.94940000
C      -45.23600000     -31.26300000     -70.46990000
C      -44.68290000     -30.84310000     -69.24550000
S      -47.75670000     -33.73460000     -68.53530000
S      -45.25790000     -31.80790000     -67.82520000
H      -44.00140000     -29.94680000     -69.11210000
