40
Properties=species:S:1:pos:R:3 #=T CELL(abcABC):=T 1.889726e+02=T 90.00000=T Traj:=T positionsangstrom=T Step:=T 0=T Bead:=T pbc="F F F"
C      -47.71120000     -34.61860000     -69.13460000
C      -48.01850000     -34.85970000     -70.46670000
C      -48.30390000     -33.70710000     -71.22680000
C      -48.43660000     -32.38970000     -70.68160000
C      -48.26690000     -32.24480000     -69.25720000
C      -47.78060000     -33.30150000     -68.54460000
H      -47.44940000     -35.43150000     -68.39960000
H      -48.58800000     -33.78110000     -72.25250000
H      -48.35860000     -31.22240000     -68.92930000
H      -47.65650000     -33.10370000     -67.41720000
C      -48.60580000     -31.19260000     -71.55020000
H      -48.59340000     -30.28620000     -70.99400000
H      -49.58870000     -31.14230000     -72.06660000
C      -48.17010000     -36.28200000     -71.00680000
H      -47.85690000     -36.93850000     -70.20920000
H      -49.23300000     -36.50490000     -71.17410000
S      -47.44980000     -31.05310000     -72.94930000
S      -47.22850000     -36.61620000     -72.44940000
C      -45.88650000     -31.35390000     -72.10320000
H      -45.60720000     -30.46060000     -71.58330000
H      -46.09020000     -32.09010000     -71.35230000
C      -45.44890000     -36.22700000     -71.93560000
H      -44.90890000     -37.06610000     -72.49140000
H      -45.50410000     -36.33130000     -70.85940000
C      -44.89910000     -34.86510000     -72.33750000
H      -44.80130000     -34.83720000     -73.36410000
H      -45.68830000     -34.13080000     -72.24600000
C      -44.69870000     -31.63550000     -73.04180000
H      -44.55790000     -30.80660000     -73.72510000
H      -44.84970000     -32.62960000     -73.59970000
C      -43.48560000     -31.83860000     -72.16690000
C      -42.62550000     -30.78700000     -71.90730000
C      -43.13440000     -33.02700000     -71.45290000
H      -42.69990000     -29.75610000     -72.32430000
C      -41.86710000     -32.95310000     -70.87760000
C      -43.69970000     -34.42770000     -71.52250000
C      -42.85590000     -35.27780000     -70.88290000
S      -41.29780000     -31.30440000     -70.89590000
S      -41.50770000     -34.44670000     -70.11890000
H      -42.93670000     -36.31640000     -70.79840000
