40
Properties=species:S:1:pos:R:3 #=T CELL(abcABC):=T 1.889726e+02=T 90.00000=T Traj:=T positionsangstrom=T Step:=T 0=T Bead:=T pbc="F F F"
C      -45.34490000     -30.60340000     -68.88290000
C      -45.73570000     -31.93590000     -68.45180000
C      -44.81540000     -33.01750000     -68.25490000
C      -43.51430000     -32.87980000     -68.73420000
C      -43.14790000     -31.62800000     -69.20570000
C      -43.98920000     -30.50790000     -69.26350000
H      -46.06550000     -29.81640000     -68.90880000
H      -45.20710000     -33.98890000     -67.95980000
H      -42.11390000     -31.52620000     -69.51560000
H      -43.59280000     -29.52280000     -69.54900000
C      -42.51570000     -34.01290000     -68.49590000
H      -42.43630000     -34.10710000     -67.46120000
H      -41.60070000     -33.86240000     -68.96690000
C      -47.18780000     -32.08150000     -68.09590000
H      -47.31040000     -32.45350000     -67.07750000
H      -47.77380000     -31.14230000     -68.21750000
S      -42.91490000     -35.74240000     -69.13660000
S      -48.04320000     -33.40330000     -69.01010000
C      -42.89480000     -35.15620000     -70.99550000
H      -42.25500000     -34.33030000     -71.08710000
H      -42.41090000     -36.01750000     -71.43390000
C      -47.55020000     -33.07800000     -70.73040000
H      -46.56690000     -32.72900000     -70.63020000
H      -48.02200000     -32.23880000     -71.24900000
C      -47.65850000     -34.34050000     -71.65740000
H      -46.96540000     -35.08960000     -71.21090000
H      -48.66880000     -34.80750000     -71.65220000
C      -44.30390000     -35.02330000     -71.58820000
H      -44.94810000     -34.57050000     -70.77780000
H      -44.82020000     -35.91580000     -71.82080000
C      -44.47040000     -34.11250000     -72.82150000
C      -43.43060000     -33.57380000     -73.56400000
C      -45.76780000     -33.79550000     -73.34010000
H      -42.39800000     -33.54650000     -73.32620000
C      -45.68400000     -33.13870000     -74.59170000
C      -47.16750000     -33.98010000     -73.00030000
C      -48.01360000     -33.91760000     -74.10870000
S      -44.01230000     -32.90490000     -75.06100000
S      -47.23760000     -33.05120000     -75.41780000
H      -49.05610000     -33.79390000     -73.97930000
