40
Properties=species:S:1:pos:R:3 #=T CELL(abcABC):=T 1.889726e+02=T 90.00000=T Traj:=T positionsangstrom=T Step:=T 0=T Bead:=T pbc="F F F"
C      -42.14780000     -34.90500000     -72.95500000
C      -42.71190000     -34.37640000     -71.77760000
C      -44.05990000     -34.71620000     -71.44740000
C      -44.86250000     -35.49540000     -72.24220000
C      -44.23080000     -36.08930000     -73.40690000
C      -42.91850000     -35.78680000     -73.73340000
H      -41.11800000     -34.62820000     -73.31400000
H      -44.53390000     -34.44340000     -70.51730000
H      -44.84040000     -36.62040000     -74.14400000
H      -42.42340000     -36.16750000     -74.61240000
C      -46.14960000     -35.89290000     -71.68180000
H      -46.22340000     -35.48560000     -70.69550000
H      -46.28230000     -36.98210000     -71.48450000
C      -42.07640000     -33.18870000     -71.08200000
H      -42.47120000     -33.23200000     -70.04510000
H      -41.02390000     -33.20800000     -70.95650000
S      -47.71490000     -35.55030000     -72.62690000
S      -42.27870000     -31.51480000     -71.93100000
C      -47.32180000     -33.93640000     -73.41530000
H      -46.22810000     -33.92650000     -73.54240000
H      -47.66560000     -33.97810000     -74.43180000
C      -43.90580000     -31.46940000     -72.82080000
H      -44.28430000     -32.47120000     -72.91020000
H      -43.73930000     -31.13680000     -73.84580000
C      -44.98560000     -30.65300000     -72.15400000
H      -44.50850000     -29.65830000     -71.87330000
H      -45.85480000     -30.36520000     -72.78550000
C      -47.87350000     -32.67270000     -72.75260000
H      -48.96930000     -32.71220000     -72.95140000
H      -47.53160000     -31.78730000     -73.21000000
C      -47.63730000     -32.73420000     -71.19290000
C      -48.33360000     -33.63900000     -70.35090000
C      -46.47200000     -32.16590000     -70.50390000
H      -49.25600000     -34.16450000     -70.53890000
C      -46.44250000     -32.63290000     -69.18030000
C      -45.37800000     -31.25140000     -70.85310000
C      -44.53400000     -31.09720000     -69.80450000
S      -47.64440000     -33.82000000     -68.73610000
S      -45.05380000     -31.93460000     -68.33920000
H      -43.58100000     -30.55360000     -69.85930000
