40
Properties=species:S:1:pos:R:3 #=T CELL(abcABC):=T 1.889726e+02=T 90.00000=T Traj:=T positionsangstrom=T Step:=T 0=T Bead:=T pbc="F F F"
C      -42.31370000     -35.07530000     -72.73280000
C      -43.01020000     -34.34190000     -71.75620000
C      -44.31870000     -34.67980000     -71.48020000
C      -44.87590000     -35.85890000     -72.06920000
C      -44.10400000     -36.65350000     -72.97020000
C      -42.82900000     -36.26540000     -73.30050000
H      -41.36720000     -34.74370000     -72.96960000
H      -44.74820000     -34.06100000     -70.69410000
H      -44.68290000     -37.49460000     -73.43490000
H      -42.21720000     -36.86590000     -73.99900000
C      -46.23530000     -36.26030000     -71.70050000
H      -46.62960000     -35.74010000     -70.82150000
H      -46.32740000     -37.40240000     -71.52890000
C      -42.37590000     -33.04950000     -71.27660000
H      -42.65960000     -32.71190000     -70.30920000
H      -41.33780000     -33.32460000     -71.11390000
S      -47.35900000     -35.70600000     -73.12740000
S      -42.35410000     -31.66610000     -72.50640000
C      -46.88640000     -33.97370000     -73.24970000
H      -45.79540000     -33.75220000     -72.94580000
H      -46.81820000     -33.69340000     -74.37660000
C      -44.08630000     -31.47440000     -73.22870000
H      -44.42910000     -32.48230000     -73.47040000
H      -43.90280000     -30.86210000     -74.08980000
C      -45.14260000     -30.79930000     -72.28080000
H      -44.96670000     -29.69750000     -72.26590000
H      -46.09470000     -30.81430000     -72.91370000
C      -47.87740000     -33.04140000     -72.40880000
H      -48.91670000     -33.40870000     -72.57540000
H      -47.92940000     -32.08180000     -72.94860000
C      -47.54640000     -32.91530000     -70.97840000
C      -48.26130000     -33.56100000     -70.03630000
C      -46.38910000     -32.12390000     -70.41170000
H      -49.12900000     -34.17530000     -70.37930000
C      -46.31030000     -32.32300000     -69.03950000
C      -45.25950000     -31.32730000     -70.86230000
C      -44.52140000     -30.76780000     -69.86000000
S      -47.75180000     -33.28830000     -68.41150000
S      -45.08380000     -31.42450000     -68.25680000
H      -43.54430000     -30.26820000     -70.00170000
