40
Properties=species:S:1:pos:R:3 #=T CELL(abcABC):=T 1.889726e+02=T 90.00000=T Traj:=T positionsangstrom=T Step:=T 0=T Bead:=T pbc="F F F"
C      -43.77440000     -31.27930000     -68.64740000
C      -43.45100000     -32.65130000     -68.42380000
C      -44.50530000     -33.56590000     -68.16790000
C      -45.78150000     -33.07510000     -68.01940000
C      -46.12030000     -31.70440000     -68.31310000
C      -45.12010000     -30.79180000     -68.57990000
H      -42.93640000     -30.54090000     -68.73800000
H      -44.32830000     -34.50420000     -67.88080000
H      -47.13820000     -31.42580000     -68.17250000
H      -45.32920000     -29.76160000     -68.85670000
C      -46.98260000     -33.95720000     -67.65520000
H      -47.75030000     -33.14430000     -67.23230000
H      -46.70630000     -34.77800000     -66.90950000
C      -42.10870000     -33.10330000     -68.64580000
H      -41.42070000     -32.29600000     -68.92000000
H      -41.70950000     -33.64620000     -67.77620000
S      -47.73400000     -34.95100000     -68.95730000
S      -41.88470000     -34.44200000     -69.93910000
C      -47.39370000     -33.96460000     -70.49980000
H      -48.26050000     -33.30410000     -70.51340000
H      -46.51390000     -33.40350000     -70.30030000
C      -42.48430000     -33.70370000     -71.45930000
H      -41.98620000     -34.08610000     -72.35830000
H      -42.16860000     -32.66260000     -71.49230000
C      -44.03340000     -33.63900000     -71.53330000
H      -44.45220000     -34.61960000     -71.36040000
H      -44.35600000     -33.09810000     -70.71730000
C      -47.27650000     -34.92820000     -71.64620000
H      -48.12980000     -35.59970000     -71.66390000
H      -46.40750000     -35.56130000     -71.57970000
C      -47.10220000     -34.30490000     -73.00910000
C      -48.03440000     -34.38360000     -74.03820000
C      -45.87490000     -33.48240000     -73.38990000
H      -48.99290000     -34.86160000     -73.95640000
C      -46.04070000     -32.98760000     -74.69030000
C      -44.56790000     -33.14190000     -72.85240000
C      -43.73060000     -32.41220000     -73.70340000
S      -47.56820000     -33.44330000     -75.49280000
S      -44.60390000     -32.16100000     -75.26580000
H      -42.72090000     -31.99630000     -73.53020000
