40
Properties=species:S:1:pos:R:3 #=T CELL(abcABC):=T 1.889726e+02=T 90.00000=T Traj:=T positionsangstrom=T Step:=T 0=T Bead:=T pbc="F F F"
C      -43.85050000     -31.36120000     -68.76850000
C      -43.68960000     -32.77920000     -68.43980000
C      -44.74200000     -33.53650000     -68.01250000
C      -45.95980000     -32.98740000     -67.92950000
C      -46.13220000     -31.64060000     -68.01490000
C      -45.11160000     -30.82370000     -68.48600000
H      -43.00960000     -30.93090000     -69.24830000
H      -44.70990000     -34.57090000     -67.96740000
H      -47.11590000     -31.17670000     -67.83400000
H      -45.38790000     -29.81420000     -68.72490000
C      -47.07590000     -33.91530000     -67.60200000
H      -47.93670000     -33.31560000     -67.45490000
H      -46.88750000     -34.45060000     -66.68690000
C      -42.23790000     -33.31730000     -68.47460000
H      -41.52140000     -32.44800000     -68.57870000
H      -41.92450000     -33.74500000     -67.54490000
S      -47.55370000     -35.09770000     -69.02110000
S      -41.86650000     -34.46800000     -69.90240000
C      -47.24770000     -34.18740000     -70.56300000
H      -48.03840000     -33.42260000     -70.77540000
H      -46.34100000     -33.58040000     -70.48250000
C      -42.55060000     -33.55930000     -71.36960000
H      -41.95680000     -33.98510000     -72.19360000
H      -42.36250000     -32.52170000     -71.16350000
C      -44.01160000     -33.79040000     -71.70110000
H      -44.21090000     -34.82560000     -71.77240000
H      -44.70730000     -33.25780000     -70.94240000
C      -47.16080000     -35.11320000     -71.76540000
H      -47.96710000     -35.81650000     -71.72140000
H      -46.23940000     -35.76560000     -71.48790000
C      -46.94580000     -34.29080000     -73.03380000
C      -48.00000000     -34.05240000     -73.87210000
C      -45.75240000     -33.57890000     -73.53180000
H      -48.92640000     -34.57650000     -73.76180000
C      -45.98080000     -33.03970000     -74.84220000
C      -44.41410000     -33.31210000     -73.06160000
C      -43.75800000     -32.41350000     -73.87310000
S      -47.57870000     -33.18110000     -75.37230000
S      -44.68150000     -31.98700000     -75.32370000
H      -42.72900000     -32.05130000     -73.94240000
