40
Properties=species:S:1:pos:R:3 #=T CELL(abcABC):=T 1.889726e+02=T 90.00000=T Traj:=T positionsangstrom=T Step:=T 0=T Bead:=T pbc="F F F"
C      -47.25670000     -33.15920000     -73.19640000
C      -46.31620000     -32.52460000     -73.98540000
C      -44.99020000     -33.08910000     -73.92130000
C      -44.74270000     -34.33460000     -73.46370000
C      -45.74660000     -35.01920000     -72.73610000
C      -47.02730000     -34.44440000     -72.57700000
H      -48.32080000     -32.84610000     -73.20080000
H      -44.08960000     -32.73020000     -74.44100000
H      -45.61500000     -36.03820000     -72.35450000
H      -47.83720000     -35.02360000     -72.09010000
C      -43.37200000     -34.94300000     -73.63340000
H      -42.65220000     -34.11110000     -73.76540000
H      -43.46670000     -35.57360000     -74.53940000
C      -46.47590000     -31.14230000     -74.47090000
H      -46.07140000     -31.18710000     -75.49960000
H      -47.53170000     -30.80690000     -74.53050000
S      -42.82550000     -35.93650000     -72.21970000
S      -45.40260000     -29.87380000     -73.52130000
C      -42.02340000     -34.64460000     -71.11280000
H      -41.53410000     -35.20130000     -70.28190000
H      -41.16720000     -34.28030000     -71.67300000
C      -46.06970000     -30.12630000     -71.79430000
H      -47.17260000     -30.41610000     -71.87770000
H      -46.05000000     -29.17970000     -71.17640000
C      -45.22640000     -31.19440000     -71.08590000
H      -44.74050000     -31.80840000     -71.77950000
H      -44.38190000     -30.69420000     -70.60190000
C      -42.90830000     -33.52510000     -70.54640000
H      -43.28190000     -32.81980000     -71.35010000
H      -42.20400000     -32.97130000     -69.90890000
C      -44.05890000     -34.03080000     -69.72560000
C      -44.07580000     -35.25500000     -69.09520000
C      -45.41260000     -33.32490000     -69.61190000
H      -43.31030000     -35.94980000     -68.98890000
C      -46.23740000     -34.05970000     -68.80560000
C      -45.94800000     -32.03200000     -70.06480000
C      -47.25830000     -31.89860000     -69.62700000
S      -45.57480000     -35.58360000     -68.24830000
S      -47.83280000     -33.18810000     -68.47950000
H      -47.70930000     -30.94380000     -69.72580000
