40
Properties=species:S:1:pos:R:3 #=T CELL(abcABC):=T 1.889726e+02=T 90.00000=T Traj:=T positionsangstrom=T Step:=T 0=T Bead:=T pbc="F F F"
C      -47.90130000     -34.58660000     -69.06860000
C      -48.21330000     -34.92530000     -70.32700000
C      -48.57260000     -33.87540000     -71.16600000
C      -48.43590000     -32.53050000     -70.78440000
C      -47.93300000     -32.16960000     -69.54610000
C      -47.70510000     -33.25390000     -68.70550000
H      -47.65580000     -35.39920000     -68.36740000
H      -48.85930000     -34.10110000     -72.22260000
H      -47.65630000     -31.17940000     -69.21400000
H      -47.26580000     -32.97290000     -67.69490000
C      -48.81850000     -31.38760000     -71.70110000
H      -48.86740000     -30.41910000     -71.13290000
H      -49.77610000     -31.67570000     -72.19570000
C      -48.16330000     -36.35540000     -70.83510000
H      -47.70340000     -37.05350000     -70.07260000
H      -49.14450000     -36.64500000     -71.13670000
S      -47.51560000     -31.11960000     -73.05560000
S      -47.09250000     -36.47740000     -72.44180000
C      -45.87860000     -31.10330000     -72.02880000
H      -45.75390000     -30.11690000     -71.56890000
H      -45.94920000     -31.87730000     -71.25900000
C      -45.37760000     -36.22610000     -71.84210000
H      -44.62040000     -36.85520000     -72.35210000
H      -45.26100000     -36.61080000     -70.78210000
C      -44.96620000     -34.83320000     -72.11760000
H      -45.00370000     -34.53790000     -73.20410000
H      -45.72370000     -34.21620000     -71.57860000
C      -44.70710000     -31.51430000     -72.99360000
H      -44.56820000     -30.69430000     -73.67680000
H      -44.98510000     -32.44970000     -73.52570000
C      -43.46470000     -31.82190000     -72.20650000
C      -42.50920000     -30.87960000     -72.04230000
C      -43.12190000     -33.05190000     -71.63050000
H      -42.61700000     -29.84760000     -72.46460000
C      -41.86900000     -33.01980000     -71.02070000
C      -43.71250000     -34.39350000     -71.47080000
C      -42.96420000     -35.19040000     -70.66320000
S      -41.17640000     -31.35870000     -70.96100000
S      -41.55450000     -34.41470000     -69.96510000
H      -43.17150000     -36.22860000     -70.38840000
