40
Properties=species:S:1:pos:R:3 #=T CELL(abcABC):=T 1.889726e+02=T 90.00000=T Traj:=T positionsangstrom=T Step:=T 0=T Bead:=T pbc="F F F"
C      -42.25610000     -35.32440000     -72.38600000
C      -43.00630000     -34.50030000     -71.58080000
C      -44.30440000     -34.82510000     -71.19950000
C      -44.86540000     -36.02550000     -71.63100000
C      -44.11890000     -36.81300000     -72.51460000
C      -42.79210000     -36.53850000     -72.83630000
H      -41.22130000     -34.94240000     -72.69270000
H      -44.83250000     -34.13680000     -70.57020000
H      -44.68850000     -37.65870000     -72.93950000
H      -42.28980000     -37.15970000     -73.63340000
C      -46.30740000     -36.26480000     -71.31980000
H      -46.61490000     -35.72200000     -70.44240000
H      -46.49640000     -37.39410000     -71.21310000
C      -42.46830000     -33.23010000     -71.15350000
H      -42.93080000     -32.81880000     -70.28320000
H      -41.38880000     -33.33720000     -70.95470000
S      -47.34790000     -35.98460000     -72.87110000
S      -42.34690000     -31.90320000     -72.56970000
C      -46.98070000     -34.28350000     -73.42010000
H      -45.90510000     -34.07720000     -73.46300000
H      -47.30730000     -34.30890000     -74.48400000
C      -44.06960000     -31.70080000     -73.23640000
H      -44.45490000     -32.68230000     -73.24810000
H      -44.02010000     -31.23640000     -74.20010000
C      -44.95720000     -30.65170000     -72.48660000
H      -44.48580000     -29.66760000     -72.64820000
H      -45.89530000     -30.55390000     -73.08940000
C      -47.67500000     -33.06930000     -72.70160000
H      -48.77450000     -33.01100000     -72.76970000
H      -47.39670000     -32.16960000     -73.25880000
C      -47.33530000     -32.88250000     -71.23200000
C      -47.99920000     -33.57330000     -70.25010000
C      -46.44150000     -31.91170000     -70.64450000
H      -48.72940000     -34.38750000     -70.44940000
C      -46.36730000     -32.03240000     -69.21700000
C      -45.43210000     -30.90630000     -71.05710000
C      -44.86930000     -30.30340000     -70.02890000
S      -47.47120000     -33.23050000     -68.69630000
S      -45.41580000     -30.80030000     -68.46120000
H      -44.16430000     -29.50000000     -69.97110000
