40
Properties=species:S:1:pos:R:3 #=T CELL(abcABC):=T 1.889726e+02=T 90.00000=T Traj:=T positionsangstrom=T Step:=T 0=T Bead:=T pbc="F F F"
C      -47.43500000     -33.16080000     -74.32950000
C      -46.09380000     -32.71780000     -74.55560000
C      -45.05050000     -33.66230000     -74.50710000
C      -45.24350000     -34.97390000     -74.07150000
C      -46.55920000     -35.35690000     -73.77920000
C      -47.61300000     -34.45530000     -73.76500000
H      -48.22720000     -32.35100000     -74.38680000
H      -44.01610000     -33.29760000     -74.65420000
H      -46.84980000     -36.34700000     -73.42600000
H      -48.60680000     -34.88290000     -73.44220000
C      -44.08150000     -35.93040000     -73.99870000
H      -43.18220000     -35.43380000     -74.34150000
H      -44.34190000     -36.82910000     -74.51940000
C      -45.75220000     -31.30440000     -74.87470000
H      -45.21720000     -31.23450000     -75.83720000
H      -46.69960000     -30.74870000     -74.88530000
S      -43.70830000     -36.50100000     -72.21220000
S      -44.76350000     -30.54940000     -73.51450000
C      -42.91850000     -35.06130000     -71.43140000
H      -42.47840000     -35.44760000     -70.46160000
H      -42.01090000     -34.71340000     -71.93780000
C      -45.61080000     -31.19090000     -71.97430000
H      -45.69980000     -32.29410000     -71.92310000
H      -46.61340000     -30.75630000     -71.83850000
C      -44.79580000     -30.81480000     -70.73650000
H      -43.80610000     -31.12440000     -70.95780000
H      -44.86630000     -29.75050000     -70.56760000
C      -43.88390000     -33.87500000     -71.19340000
H      -44.63600000     -33.92230000     -71.99010000
H      -43.31610000     -32.98040000     -71.20070000
C      -44.59790000     -34.01480000     -69.87030000
C      -44.90240000     -35.23080000     -69.21290000
C      -45.14270000     -32.85930000     -69.16290000
H      -44.57640000     -36.20770000     -69.50910000
C      -45.80870000     -33.22130000     -67.99870000
C      -45.31010000     -31.48320000     -69.48320000
C      -46.07100000     -30.80960000     -68.54060000
S      -45.70820000     -34.93440000     -67.73210000
S      -46.66950000     -31.90920000     -67.29260000
H      -46.45820000     -29.77170000     -68.49490000
