40
Properties=species:S:1:pos:R:3 #=T CELL(abcABC):=T 1.889726e+02=T 90.00000=T Traj:=T positionsangstrom=T Step:=T 0=T Bead:=T pbc="F F F"
C      -43.66810000     -30.98140000     -69.23120000
C      -43.56450000     -32.23170000     -68.53660000
C      -44.73890000     -32.91470000     -68.11190000
C      -46.02730000     -32.37350000     -68.32200000
C      -46.10330000     -31.05360000     -68.89550000
C      -44.96040000     -30.38290000     -69.36430000
H      -42.71560000     -30.45010000     -69.46920000
H      -44.79180000     -33.90690000     -67.67810000
H      -47.06530000     -30.56900000     -69.14150000
H      -45.10840000     -29.50370000     -69.99470000
C      -47.32360000     -33.03000000     -67.92510000
H      -48.15890000     -32.44200000     -68.28700000
H      -47.37480000     -33.14430000     -66.89630000
C      -42.26850000     -32.94410000     -68.40420000
H      -41.37440000     -32.38360000     -68.71340000
H      -42.15200000     -33.24410000     -67.28090000
S      -47.36170000     -34.62860000     -68.85260000
S      -42.37730000     -34.60530000     -69.32800000
C      -47.35090000     -33.85340000     -70.55250000
H      -48.30360000     -33.31450000     -70.59980000
H      -46.52290000     -33.08720000     -70.59190000
C      -42.66430000     -34.01420000     -71.01430000
H      -41.83130000     -34.39880000     -71.65210000
H      -42.65330000     -32.90910000     -71.14930000
C      -44.02410000     -34.40490000     -71.58620000
H      -44.07490000     -35.47390000     -71.69950000
H      -44.79280000     -34.33540000     -70.83460000
C      -47.32780000     -35.00270000     -71.61470000
H      -48.35570000     -35.32910000     -71.63720000
H      -46.64400000     -35.79060000     -71.29380000
C      -46.94670000     -34.51890000     -73.00440000
C      -47.98220000     -34.27830000     -73.88010000
C      -45.74370000     -33.96030000     -73.49750000
H      -48.95590000     -34.61610000     -73.56270000
C      -45.83750000     -33.43370000     -74.76780000
C      -44.46900000     -33.69750000     -72.84890000
C      -43.61030000     -32.95510000     -73.66280000
S      -47.48410000     -33.60690000     -75.41270000
S      -44.41430000     -32.59840000     -75.27370000
H      -42.57820000     -32.79070000     -73.35930000
