40
Properties=species:S:1:pos:R:3 #=T CELL(abcABC):=T 1.889726e+02=T 90.00000=T Traj:=T positionsangstrom=T Step:=T 0=T Bead:=T pbc="F F F"
C      -47.40620000     -33.17050000     -74.19070000
C      -46.09350000     -32.77290000     -74.51730000
C      -45.00030000     -33.66310000     -74.45840000
C      -45.20050000     -34.98870000     -74.08920000
C      -46.48270000     -35.37670000     -73.67080000
C      -47.54870000     -34.50780000     -73.70880000
H      -48.23340000     -32.49710000     -74.17570000
H      -44.03100000     -33.27140000     -74.66300000
H      -46.71230000     -36.45850000     -73.37090000
H      -48.56740000     -34.89250000     -73.45620000
C      -43.96080000     -35.88910000     -73.87120000
H      -42.98260000     -35.54750000     -74.19530000
H      -44.10810000     -36.76570000     -74.62740000
C      -45.88460000     -31.29330000     -74.81740000
H      -45.36930000     -31.10290000     -75.76540000
H      -46.85990000     -30.81450000     -74.90460000
S      -43.72690000     -36.61890000     -72.20710000
S      -44.82590000     -30.43620000     -73.54030000
C      -42.82660000     -35.17220000     -71.48980000
H      -42.23190000     -35.48450000     -70.64030000
H      -42.09070000     -34.87950000     -72.25510000
C      -45.83670000     -30.84570000     -72.01730000
H      -46.30300000     -31.86520000     -72.03050000
H      -46.66300000     -30.14900000     -72.14790000
C      -44.93270000     -30.79980000     -70.79770000
H      -43.87120000     -31.10530000     -70.97830000
H      -44.87970000     -29.68980000     -70.50280000
C      -43.65720000     -33.93270000     -71.10770000
H      -44.48930000     -33.68530000     -71.80920000
H      -42.83710000     -33.14410000     -71.17740000
C      -44.37660000     -33.97020000     -69.80150000
C      -44.47710000     -35.18890000     -69.08410000
C      -45.25860000     -32.88790000     -69.30520000
H      -43.97210000     -36.06260000     -69.26160000
C      -45.88970000     -33.24590000     -68.12940000
C      -45.47920000     -31.51050000     -69.58240000
C      -46.34220000     -30.91670000     -68.69770000
S      -45.52380000     -34.88760000     -67.62860000
S      -46.87530000     -31.97260000     -67.42050000
H      -46.72810000     -29.88260000     -68.75360000
