40
Properties=species:S:1:pos:R:3 #=T CELL(abcABC):=T 1.889726e+02=T 90.00000=T Traj:=T positionsangstrom=T Step:=T 0=T Bead:=T pbc="F F F"
C      -43.51580000     -31.06340000     -68.99670000
C      -43.52870000     -32.30680000     -68.31750000
C      -44.77650000     -32.89580000     -67.95620000
C      -45.96360000     -32.24190000     -68.28280000
C      -45.96700000     -30.98030000     -68.95780000
C      -44.78990000     -30.38740000     -69.18640000
H      -42.60030000     -30.62930000     -69.19410000
H      -44.72970000     -33.85720000     -67.52130000
H      -46.95470000     -30.52670000     -69.08350000
H      -44.79360000     -29.32480000     -69.54630000
C      -47.20200000     -33.01600000     -68.01130000
H      -48.17670000     -32.40870000     -68.19880000
H      -47.41290000     -33.22520000     -66.92940000
C      -42.23530000     -33.09670000     -68.22210000
H      -41.31430000     -32.57260000     -68.51850000
H      -42.20480000     -33.46130000     -67.26080000
S      -47.19200000     -34.57320000     -68.90490000
S      -42.28290000     -34.62050000     -69.42090000
C      -47.37850000     -33.99540000     -70.72120000
H      -48.37730000     -33.44310000     -70.82580000
H      -46.70410000     -33.18560000     -70.89490000
C      -42.71750000     -33.87060000     -71.12410000
H      -41.95340000     -34.32770000     -71.75450000
H      -42.53500000     -32.82140000     -71.13760000
C      -44.08910000     -34.35840000     -71.51070000
H      -44.14790000     -35.50620000     -71.67590000
H      -44.72550000     -34.10230000     -70.67710000
C      -47.20560000     -35.22530000     -71.69360000
H      -48.02250000     -35.99110000     -71.64590000
H      -46.28580000     -35.76070000     -71.34810000
C      -47.03420000     -34.61680000     -73.08370000
C      -48.00260000     -34.46330000     -74.03280000
C      -45.90170000     -33.83140000     -73.42030000
H      -49.01060000     -34.85530000     -73.81750000
C      -46.05070000     -33.20960000     -74.64160000
C      -44.59480000     -33.67020000     -72.87730000
C      -43.76610000     -33.04430000     -73.80960000
S      -47.52330000     -33.68220000     -75.49170000
S      -44.62350000     -32.43760000     -75.19450000
H      -42.71850000     -32.79800000     -73.66040000
