40
Properties=species:S:1:pos:R:3 #=T CELL(abcABC):=T 1.889726e+02=T 90.00000=T Traj:=T positionsangstrom=T Step:=T 0=T Bead:=T pbc="F F F"
C      -43.61260000     -31.16810000     -68.75150000
C      -43.66470000     -32.51380000     -68.51680000
C      -44.84990000     -33.13660000     -68.18400000
C      -46.04660000     -32.36080000     -68.18380000
C      -45.97340000     -30.99030000     -68.28630000
C      -44.71450000     -30.35500000     -68.58730000
H      -42.64710000     -30.72510000     -68.93920000
H      -45.04870000     -34.23380000     -68.23680000
H      -46.93510000     -30.49390000     -67.99700000
H      -44.56870000     -29.30840000     -68.71270000
C      -47.40720000     -33.12110000     -67.88270000
H      -48.18990000     -32.49700000     -68.12460000
H      -47.41320000     -33.17540000     -66.85650000
C      -42.32840000     -33.30400000     -68.45590000
H      -41.63720000     -32.49310000     -68.41810000
H      -42.17390000     -33.91220000     -67.50650000
S      -47.44230000     -34.72780000     -68.85150000
S      -42.06790000     -34.54320000     -69.79130000
C      -47.46580000     -34.09060000     -70.61840000
H      -48.45240000     -33.79300000     -70.98250000
H      -46.86180000     -33.21190000     -70.49100000
C      -42.50500000     -33.58900000     -71.29300000
H      -41.90150000     -34.02230000     -72.15900000
H      -42.18230000     -32.53650000     -71.14290000
C      -44.04990000     -33.72950000     -71.61310000
H      -44.29740000     -34.75660000     -71.29890000
H      -44.58930000     -33.09200000     -70.86070000
C      -46.94310000     -35.18620000     -71.62740000
H      -47.65280000     -36.03670000     -71.62640000
H      -45.96140000     -35.60490000     -71.33000000
C      -46.86250000     -34.62200000     -73.00710000
C      -47.90360000     -34.77180000     -73.91820000
C      -45.78430000     -33.86990000     -73.50860000
H      -48.88250000     -35.19890000     -73.79900000
C      -45.97410000     -33.35210000     -74.79770000
C      -44.51570000     -33.37810000     -72.97480000
C      -43.80700000     -32.57060000     -73.79120000
S      -47.54690000     -33.88760000     -75.41670000
S      -44.69420000     -32.26660000     -75.32270000
H      -42.85650000     -32.10520000     -73.53090000
