40
Properties=species:S:1:pos:R:3 #=T CELL(abcABC):=T 1.889726e+02=T 90.00000=T Traj:=T positionsangstrom=T Step:=T 0=T Bead:=T pbc="F F F"
C      -47.14140000     -33.00230000     -73.98780000
C      -45.84240000     -32.73560000     -74.33900000
C      -44.84790000     -33.63450000     -74.27820000
C      -45.04270000     -34.84720000     -73.64900000
C      -46.36970000     -35.13100000     -73.14990000
C      -47.42360000     -34.24580000     -73.42310000
H      -47.87150000     -32.23160000     -74.21800000
H      -43.79340000     -33.37180000     -74.48080000
H      -46.57900000     -36.03560000     -72.65470000
H      -48.43100000     -34.51790000     -73.05680000
C      -43.96100000     -35.89010000     -73.52720000
H      -43.12410000     -35.46860000     -74.04670000
H      -44.31500000     -36.79460000     -73.97790000
C      -45.67610000     -31.31440000     -74.93160000
H      -44.76800000     -31.24270000     -75.47930000
H      -46.52990000     -31.18130000     -75.64540000
S      -43.44610000     -36.43710000     -71.87390000
S      -45.71990000     -29.87820000     -73.69800000
C      -42.34680000     -35.02440000     -71.27490000
H      -41.71190000     -35.57190000     -70.52740000
H      -41.63930000     -34.91190000     -72.11630000
C      -46.22490000     -30.58310000     -72.13130000
H      -46.96800000     -31.42150000     -72.29890000
H      -46.84200000     -29.77780000     -71.70210000
C      -45.12740000     -31.16170000     -71.17110000
H      -44.50780000     -31.89590000     -71.69970000
H      -44.45160000     -30.36540000     -70.89700000
C      -43.07030000     -33.80540000     -70.82000000
H      -43.63810000     -33.41850000     -71.62730000
H      -42.29660000     -33.11150000     -70.44970000
C      -44.08100000     -34.06250000     -69.74510000
C      -44.10220000     -35.11440000     -68.89470000
C      -45.13320000     -33.10230000     -69.37680000
H      -43.57550000     -35.98390000     -69.04340000
C      -45.90670000     -33.49700000     -68.32680000
C      -45.66540000     -31.83290000     -69.95780000
C      -46.75510000     -31.39710000     -69.30370000
S      -45.42990000     -35.07180000     -67.75210000
S      -47.15460000     -32.41260000     -67.90400000
H      -47.54620000     -30.69520000     -69.56070000
