40
Properties=species:S:1:pos:R:3 #=T CELL(abcABC):=T 1.889726e+02=T 90.00000=T Traj:=T positionsangstrom=T Step:=T 0=T Bead:=T pbc="F F F"
C      -47.43910000     -33.00110000     -74.61930000
C      -46.08340000     -32.54450000     -74.50980000
C      -45.02910000     -33.47540000     -74.39310000
C      -45.36110000     -34.77490000     -74.09380000
C      -46.70900000     -35.22680000     -74.09880000
C      -47.70270000     -34.31890000     -74.36740000
H      -48.24640000     -32.30940000     -74.73730000
H      -43.95420000     -33.18910000     -74.40440000
H      -47.10460000     -36.24300000     -73.93900000
H      -48.73560000     -34.61320000     -74.43700000
C      -44.20610000     -35.77500000     -73.98620000
H      -43.22580000     -35.20270000     -74.11890000
H      -44.13600000     -36.53750000     -74.72710000
C      -45.80560000     -31.08420000     -74.45650000
H      -45.60700000     -30.59460000     -75.44390000
H      -46.74020000     -30.63180000     -74.12950000
S      -44.13910000     -36.64860000     -72.36570000
S      -44.29830000     -30.72250000     -73.40800000
C      -43.15120000     -35.55550000     -71.31700000
H      -42.90720000     -36.14830000     -70.43520000
H      -42.17220000     -35.46240000     -71.82750000
C      -45.03330000     -31.08160000     -71.75270000
H      -45.37890000     -32.10820000     -71.84780000
H      -46.01630000     -30.48810000     -71.61610000
C      -44.17830000     -30.84310000     -70.51270000
H      -43.22080000     -31.30500000     -70.65740000
H      -44.02560000     -29.75930000     -70.32020000
C      -43.78950000     -34.20900000     -71.03390000
H      -44.19370000     -33.80810000     -72.00970000
H      -43.01710000     -33.43260000     -70.87610000
C      -44.67880000     -34.15000000     -69.80440000
C      -45.20900000     -35.26970000     -69.22890000
C      -45.18570000     -32.91230000     -69.18020000
H      -45.09880000     -36.24650000     -69.59640000
C      -46.02340000     -33.22310000     -68.07330000
C      -44.92380000     -31.53110000     -69.33680000
C      -45.57930000     -30.79770000     -68.36340000
S      -46.28190000     -34.91050000     -67.90880000
S      -46.49770000     -31.75190000     -67.22810000
H      -45.44580000     -29.72690000     -68.44220000
