40
Properties=species:S:1:pos:R:3 #=T CELL(abcABC):=T 1.889726e+02=T 90.00000=T Traj:=T positionsangstrom=T Step:=T 0=T Bead:=T pbc="F F F"
C      -47.32430000     -32.84280000     -74.33650000
C      -45.97490000     -32.50700000     -74.33330000
C      -44.98160000     -33.53050000     -74.18200000
C      -45.39930000     -34.84550000     -74.14980000
C      -46.77240000     -35.19980000     -74.25050000
C      -47.69670000     -34.21650000     -74.44690000
H      -48.11390000     -32.11300000     -74.46910000
H      -43.96130000     -33.19120000     -74.11500000
H      -47.18800000     -36.20310000     -74.17400000
H      -48.67790000     -34.62770000     -74.59370000
C      -44.37370000     -35.93940000     -74.05660000
H      -43.36310000     -35.60010000     -74.24480000
H      -44.63390000     -36.69340000     -74.78950000
C      -45.48960000     -31.16760000     -74.63040000
H      -44.95350000     -30.99410000     -75.52190000
H      -46.32250000     -30.41370000     -74.70310000
S      -44.26900000     -36.79390000     -72.38490000
S      -44.26870000     -30.55620000     -73.37650000
C      -43.20270000     -35.66910000     -71.34040000
H      -42.73100000     -36.25660000     -70.50820000
H      -42.40470000     -35.40530000     -72.03370000
C      -45.21710000     -30.86180000     -71.87920000
H      -45.78750000     -31.82770000     -71.94810000
H      -45.88890000     -30.11220000     -71.62000000
C      -44.27090000     -30.96640000     -70.70390000
H      -43.35240000     -31.52730000     -70.77640000
H      -43.86490000     -29.95470000     -70.58700000
C      -43.78500000     -34.27310000     -70.99910000
H      -44.27550000     -33.92750000     -71.90900000
H      -42.93980000     -33.71710000     -70.67960000
C      -44.79780000     -34.26440000     -69.83840000
C      -45.31440000     -35.34300000     -69.14160000
C      -45.15930000     -32.99460000     -69.21490000
H      -45.29310000     -36.35500000     -69.37950000
C      -45.92690000     -33.12970000     -68.04620000
C      -45.07810000     -31.58440000     -69.53480000
C      -45.56810000     -30.79350000     -68.48340000
S      -46.23440000     -34.84720000     -67.74450000
S      -46.34840000     -31.67650000     -67.20560000
H      -45.63670000     -29.73470000     -68.61160000
