40
Properties=species:S:1:pos:R:3 #=T CELL(abcABC):=T 1.889726e+02=T 90.00000=T Traj:=T positionsangstrom=T Step:=T 0=T Bead:=T pbc="F F F"
C      -47.76200000     -34.53020000     -69.03580000
C      -48.17340000     -34.85770000     -70.27690000
C      -48.48150000     -33.83210000     -71.18690000
C      -48.42570000     -32.50670000     -70.86100000
C      -47.94480000     -32.17910000     -69.56750000
C      -47.64520000     -33.21430000     -68.66920000
H      -47.46480000     -35.21330000     -68.27080000
H      -48.63660000     -34.07240000     -72.24810000
H      -47.74570000     -31.11760000     -69.37430000
H      -47.32030000     -33.04920000     -67.66300000
C      -48.73190000     -31.45090000     -71.82730000
H      -48.68070000     -30.45260000     -71.36840000
H      -49.77690000     -31.61180000     -72.30160000
C      -48.12950000     -36.30580000     -70.67630000
H      -47.81630000     -36.87270000     -69.82820000
H      -49.18480000     -36.70160000     -70.86110000
S      -47.48120000     -31.48610000     -73.21850000
S      -47.05190000     -36.64100000     -72.20700000
C      -45.94500000     -31.18990000     -72.16130000
H      -45.94170000     -30.18010000     -71.68520000
H      -45.97510000     -31.95400000     -71.36410000
C      -45.40690000     -36.16110000     -71.55560000
H      -44.62700000     -36.76200000     -72.14730000
H      -45.43210000     -36.37650000     -70.48110000
C      -45.17240000     -34.62000000     -71.86640000
H      -45.24080000     -34.18140000     -72.86910000
H      -46.01780000     -34.17050000     -71.34980000
C      -44.71620000     -31.38880000     -73.09500000
H      -44.56740000     -30.47190000     -73.72820000
H      -44.90730000     -32.20270000     -73.82990000
C      -43.48220000     -31.70450000     -72.29970000
C      -42.41660000     -30.82970000     -72.23720000
C      -43.27630000     -32.92380000     -71.50190000
H      -42.38590000     -29.82240000     -72.61840000
C      -42.03010000     -32.87230000     -70.87840000
C      -43.86860000     -34.18700000     -71.26790000
C      -43.19550000     -34.94740000     -70.38090000
S      -41.02770000     -31.49550000     -71.34970000
S      -41.57250000     -34.33390000     -69.97880000
H      -43.57110000     -35.91260000     -69.91820000
