40
Properties=species:S:1:pos:R:3 #=T CELL(abcABC):=T 1.889726e+02=T 90.00000=T Traj:=T positionsangstrom=T Step:=T 0=T Bead:=T pbc="F F F"
C      -47.32550000     -33.21650000     -74.37160000
C      -46.00540000     -32.75620000     -74.34700000
C      -44.87550000     -33.57650000     -74.17430000
C      -45.18870000     -34.94380000     -74.26860000
C      -46.49280000     -35.44690000     -74.42500000
C      -47.54710000     -34.57200000     -74.26180000
H      -48.16780000     -32.51870000     -74.26650000
H      -43.87070000     -33.22590000     -74.07240000
H      -46.66840000     -36.49730000     -74.57410000
H      -48.60830000     -34.70940000     -74.14910000
C      -44.13740000     -35.96890000     -74.11270000
H      -43.22800000     -35.59850000     -74.42370000
H      -44.41460000     -36.81120000     -74.82450000
C      -45.77200000     -31.24110000     -74.44780000
H      -45.34510000     -31.06620000     -75.43050000
H      -46.69840000     -30.64650000     -74.45260000
S      -44.19430000     -36.64380000     -72.37820000
S      -44.52130000     -30.44450000     -73.28110000
C      -43.08210000     -35.40880000     -71.45190000
H      -42.69260000     -35.88460000     -70.55590000
H      -42.16610000     -35.38250000     -72.06180000
C      -45.37140000     -30.87220000     -71.68710000
H      -45.83690000     -31.85860000     -71.79010000
H      -46.08960000     -30.12790000     -71.35270000
C      -44.31900000     -30.80630000     -70.56820000
H      -43.34850000     -31.30590000     -70.78210000
H      -43.95280000     -29.81030000     -70.31570000
C      -43.66740000     -34.01970000     -71.02020000
H      -44.35330000     -33.54280000     -71.72520000
H      -42.69760000     -33.50060000     -70.86440000
C      -44.67120000     -34.15400000     -69.82610000
C      -45.22740000     -35.27530000     -69.28290000
C      -45.12960000     -32.90290000     -69.21090000
H      -44.91710000     -36.32820000     -69.53770000
C      -46.00690000     -33.18440000     -68.20810000
C      -44.87200000     -31.46310000     -69.30130000
C      -45.60670000     -30.75500000     -68.32080000
S      -46.38250000     -34.86190000     -67.99350000
S      -46.43300000     -31.76650000     -67.20550000
H      -45.60240000     -29.65940000     -68.16510000
