40
Properties=species:S:1:pos:R:3 #=T CELL(abcABC):=T 1.889726e+02=T 90.00000=T Traj:=T positionsangstrom=T Step:=T 0=T Bead:=T pbc="F F F"
C      -44.03010000     -31.09770000     -69.29300000
C      -43.75440000     -32.37350000     -68.71900000
C      -44.85640000     -33.12880000     -68.18390000
C      -46.12580000     -32.61920000     -68.24380000
C      -46.33700000     -31.32690000     -68.64550000
C      -45.26910000     -30.53820000     -69.16330000
H      -43.21010000     -30.50080000     -69.66580000
H      -44.73880000     -34.12090000     -67.75480000
H      -47.38130000     -30.97800000     -68.61330000
H      -45.59400000     -29.47580000     -69.40420000
C      -47.25630000     -33.36090000     -67.65780000
H      -47.95260000     -32.65110000     -67.12720000
H      -47.04340000     -34.08180000     -66.85750000
C      -42.32520000     -32.83830000     -68.63000000
H      -41.78190000     -32.09680000     -69.24390000
H      -41.97950000     -32.85420000     -67.57270000
S      -48.40760000     -34.33820000     -68.86680000
S      -42.07600000     -34.52860000     -69.42190000
C      -47.97880000     -33.80340000     -70.57870000
H      -48.93960000     -33.64820000     -71.12650000
H      -47.61980000     -32.83930000     -70.49410000
C      -42.27450000     -34.25680000     -71.27600000
H      -41.47260000     -34.55130000     -71.88350000
H      -42.37520000     -33.17480000     -71.38250000
C      -43.65210000     -34.79500000     -71.73970000
H      -43.55210000     -35.86400000     -71.77320000
H      -44.40910000     -34.61520000     -70.94220000
C      -47.13720000     -34.78890000     -71.46920000
H      -47.77740000     -35.67980000     -71.59940000
H      -46.24380000     -35.10360000     -70.90500000
C      -46.77430000     -34.13790000     -72.82620000
C      -47.79340000     -33.61150000     -73.62350000
C      -45.50860000     -33.91520000     -73.45800000
H      -48.77790000     -33.62130000     -73.30120000
C      -45.64990000     -33.32540000     -74.74360000
C      -44.13070000     -34.21510000     -73.08200000
C      -43.22880000     -33.69650000     -73.98690000
S      -47.27810000     -32.82680000     -75.09220000
S      -44.08710000     -33.00910000     -75.44910000
H      -42.18370000     -33.83440000     -74.18240000
