40
Properties=species:S:1:pos:R:3 #=T CELL(abcABC):=T 1.889726e+02=T 90.00000=T Traj:=T positionsangstrom=T Step:=T 0=T Bead:=T pbc="F F F"
C      -47.10330000     -32.82510000     -74.45770000
C      -45.72190000     -32.60350000     -74.58670000
C      -44.87770000     -33.68080000     -74.53210000
C      -45.41520000     -35.03060000     -74.30860000
C      -46.77240000     -35.19980000     -74.18190000
C      -47.62790000     -34.10600000     -74.34350000
H      -47.78230000     -31.96340000     -74.48670000
H      -43.79810000     -33.54720000     -74.73220000
H      -47.21490000     -36.14230000     -73.99810000
H      -48.70060000     -34.25940000     -74.08250000
C      -44.47970000     -36.17610000     -74.01530000
H      -43.43680000     -36.00720000     -74.21630000
H      -44.81040000     -36.96360000     -74.75200000
C      -45.22740000     -31.10680000     -74.79200000
H      -44.51540000     -31.16960000     -75.66810000
H      -46.13570000     -30.58770000     -75.11420000
S      -44.56530000     -36.79260000     -72.20430000
S      -44.27960000     -30.33410000     -73.43580000
C      -43.31950000     -35.68130000     -71.36930000
H      -43.11150000     -36.16000000     -70.38130000
H      -42.41830000     -35.45920000     -71.98610000
C      -45.20050000     -30.82770000     -71.92950000
H      -45.69070000     -31.76230000     -72.20840000
H      -45.95230000     -30.03310000     -71.65440000
C      -44.25070000     -31.04230000     -70.71340000
H      -43.45410000     -31.75690000     -71.02400000
H      -43.79240000     -30.10500000     -70.47500000
C      -43.95050000     -34.28560000     -70.96970000
H      -44.60100000     -33.85870000     -71.73670000
H      -43.14340000     -33.51060000     -70.91170000
C      -44.80480000     -34.27270000     -69.74610000
C      -45.23420000     -35.34340000     -69.02210000
C      -45.17890000     -32.97870000     -69.17780000
H      -45.03080000     -36.35890000     -69.25450000
C      -45.95410000     -33.11930000     -68.01700000
C      -44.96510000     -31.58420000     -69.51090000
C      -45.40020000     -30.78750000     -68.45300000
S      -46.26770000     -34.85000000     -67.65720000
S      -46.33950000     -31.67970000     -67.19170000
H      -45.36650000     -29.69820000     -68.40390000
