40
Properties=species:S:1:pos:R:3 #=T CELL(abcABC):=T 1.889726e+02=T 90.00000=T Traj:=T positionsangstrom=T Step:=T 0=T Bead:=T pbc="F F F"
C      -45.89350000     -32.65820000     -75.79060000
C      -44.76140000     -33.01080000     -74.98360000
C      -44.68110000     -34.23610000     -74.33780000
C      -45.80570000     -35.09630000     -74.34810000
C      -46.96390000     -34.66870000     -75.04970000
C      -46.97220000     -33.50810000     -75.81860000
H      -45.70180000     -31.73220000     -76.47140000
H      -43.80780000     -34.41980000     -73.82170000
H      -47.76720000     -35.36660000     -75.25750000
H      -47.80310000     -33.25510000     -76.50320000
C      -45.86030000     -36.41820000     -73.57980000
H      -44.82360000     -36.88860000     -73.60200000
H      -46.54800000     -37.05890000     -74.02550000
C      -43.56220000     -32.11240000     -74.93740000
H      -42.64250000     -32.66390000     -74.89320000
H      -43.58610000     -31.56250000     -75.88150000
S      -46.35720000     -36.06220000     -71.83580000
S      -43.40560000     -30.80930000     -73.48090000
C      -44.92510000     -36.43810000     -70.79130000
H      -45.36640000     -37.03650000     -69.99120000
H      -44.18760000     -36.98250000     -71.39130000
C      -44.58170000     -31.37480000     -72.16850000
H      -45.09270000     -32.20840000     -72.51780000
H      -45.29630000     -30.61920000     -71.87060000
C      -43.83220000     -31.78790000     -70.92060000
H      -43.29960000     -32.75060000     -71.02660000
H      -43.05590000     -31.03250000     -70.74450000
C      -44.17830000     -35.24500000     -70.18730000
H      -43.85970000     -34.66060000     -71.05670000
H      -43.22780000     -35.64960000     -69.70520000
C      -44.88830000     -34.46930000     -69.07470000
C      -45.49550000     -35.13070000     -67.99900000
C      -45.09400000     -32.98320000     -68.95230000
H      -45.65480000     -36.17910000     -67.95570000
C      -45.87960000     -32.72470000     -67.81980000
C      -44.70860000     -31.79270000     -69.66780000
C      -45.27720000     -30.67930000     -69.13910000
S      -46.30700000     -34.05710000     -66.84590000
S      -46.23960000     -31.02110000     -67.75250000
H      -45.25610000     -29.68970000     -69.47600000
