40
Properties=species:S:1:pos:R:3 #=T CELL(abcABC):=T 1.889726e+02=T 90.00000=T Traj:=T positionsangstrom=T Step:=T 0=T Bead:=T pbc="F F F"
C      -45.71740000     -32.59520000     -75.53010000
C      -44.63090000     -32.98270000     -74.81230000
C      -44.64010000     -34.22390000     -74.04870000
C      -45.82140000     -34.99250000     -74.11530000
C      -46.93300000     -34.49800000     -74.83670000
C      -46.89640000     -33.29780000     -75.50160000
H      -45.67010000     -31.67590000     -76.05930000
H      -43.74050000     -34.58810000     -73.43220000
H      -47.83050000     -35.11770000     -74.99670000
H      -47.77010000     -32.89160000     -75.94850000
C      -45.76360000     -36.33710000     -73.45800000
H      -44.79050000     -36.67040000     -73.67920000
H      -46.47860000     -37.05040000     -73.92490000
C      -43.41660000     -32.11440000     -74.68350000
H      -42.56260000     -32.62860000     -74.24240000
H      -43.05670000     -31.68580000     -75.62440000
S      -45.98260000     -36.27540000     -71.71910000
S      -43.98870000     -30.67940000     -73.66210000
C      -44.29080000     -36.33110000     -70.88100000
H      -44.24960000     -37.05610000     -70.02210000
H      -43.58400000     -36.69840000     -71.59490000
C      -44.72630000     -31.31830000     -72.14570000
H      -45.24700000     -32.16140000     -72.48320000
H      -45.46480000     -30.62500000     -71.95070000
C      -43.86920000     -31.45050000     -70.86190000
H      -43.05690000     -32.19420000     -70.96730000
H      -43.28510000     -30.52400000     -70.66220000
C      -43.92230000     -34.90960000     -70.38990000
H      -44.05810000     -34.27470000     -71.27160000
H      -42.88550000     -34.87070000     -69.95320000
C      -44.83670000     -34.47590000     -69.30120000
C      -45.42740000     -35.26570000     -68.36480000
C      -45.12850000     -33.01210000     -69.06940000
H      -45.58980000     -36.36380000     -68.32520000
C      -46.03050000     -32.86150000     -67.99770000
C      -44.76900000     -31.76100000     -69.64980000
C      -45.44470000     -30.70380000     -69.03730000
S      -46.43530000     -34.35130000     -67.21650000
S      -46.38710000     -31.19020000     -67.70550000
H      -45.30690000     -29.63050000     -69.20230000
