40
Properties=species:S:1:pos:R:3 #=T CELL(abcABC):=T 1.889726e+02=T 90.00000=T Traj:=T positionsangstrom=T Step:=T 0=T Bead:=T pbc="F F F"
C      -44.43460000     -31.17890000     -74.63330000
C      -43.92470000     -32.40780000     -74.25390000
C      -43.26580000     -32.45580000     -72.94690000
C      -43.17240000     -31.28820000     -72.18110000
C      -43.77480000     -30.06940000     -72.64160000
C      -44.38910000     -29.99780000     -73.84860000
H      -44.84150000     -31.07930000     -75.68460000
H      -42.89590000     -33.40750000     -72.52600000
H      -43.71300000     -29.16030000     -71.95060000
H      -44.81220000     -29.00570000     -74.03880000
C      -42.37900000     -31.29700000     -70.90480000
H      -41.98700000     -30.28390000     -70.78600000
H      -41.39960000     -31.76110000     -70.91870000
C      -43.94730000     -33.55030000     -75.16150000
H      -43.65850000     -33.37600000     -76.25470000
H      -43.33750000     -34.29960000     -74.77970000
S      -43.35790000     -31.89130000     -69.52220000
S      -45.64410000     -34.24510000     -75.34590000
C      -44.95100000     -30.93950000     -69.62620000
H      -45.26040000     -30.64290000     -68.60340000
H      -44.79580000     -30.08810000     -70.28900000
C      -45.95010000     -35.14420000     -73.77270000
H      -44.96810000     -35.64940000     -73.58020000
H      -46.75260000     -35.89080000     -73.94300000
C      -46.27520000     -34.28930000     -72.57870000
H      -45.46000000     -33.56740000     -72.63280000
H      -47.13830000     -33.62910000     -72.73660000
C      -46.11080000     -31.88530000     -70.23570000
H      -45.64200000     -32.09900000     -71.18880000
H      -47.01270000     -31.27800000     -70.42210000
C      -46.42830000     -33.01420000     -69.40160000
C      -46.53280000     -33.00870000     -68.00370000
C      -46.70450000     -34.31820000     -69.95230000
H      -46.32350000     -32.08020000     -67.46100000
C      -47.02860000     -35.23580000     -68.98390000
C      -46.39510000     -34.93800000     -71.20580000
C      -46.46310000     -36.27920000     -71.12780000
S      -46.91920000     -34.58180000     -67.40040000
S      -46.87160000     -36.91100000     -69.38970000
H      -46.30580000     -37.12110000     -71.86520000
