40
Properties=species:S:1:pos:R:3 #=T CELL(abcABC):=T 1.889726e+02=T 90.00000=T Traj:=T positionsangstrom=T Step:=T 0=T Bead:=T pbc="F F F"
C      -45.80360000     -32.56120000     -75.73490000
C      -44.74030000     -32.92870000     -74.92190000
C      -44.71210000     -34.15040000     -74.15230000
C      -45.75070000     -35.03860000     -74.28290000
C      -46.83080000     -34.66120000     -75.14380000
C      -46.90990000     -33.43490000     -75.81410000
H      -45.82740000     -31.55510000     -76.21980000
H      -43.77270000     -34.29090000     -73.53580000
H      -47.72230000     -35.29400000     -75.36930000
H      -47.83630000     -33.16770000     -76.34950000
C      -45.73540000     -36.38350000     -73.54350000
H      -44.71680000     -36.78360000     -73.48690000
H      -46.46880000     -37.13750000     -73.81590000
C      -43.51700000     -32.16550000     -74.90880000
H      -42.65480000     -32.85170000     -74.60500000
H      -43.24070000     -31.67510000     -75.85920000
S      -46.33900000     -36.15480000     -71.72950000
S      -43.62370000     -30.73880000     -73.66100000
C      -44.80500000     -36.40570000     -70.73740000
H      -45.11930000     -37.12310000     -69.95380000
H      -44.09220000     -36.97700000     -71.38250000
C      -44.46100000     -31.47690000     -72.11030000
H      -44.87760000     -32.50170000     -72.39240000
H      -45.36790000     -30.83410000     -71.88250000
C      -43.67100000     -31.59010000     -70.77540000
H      -42.93710000     -32.38090000     -70.73670000
H      -43.11210000     -30.65530000     -70.59560000
C      -44.17170000     -35.13360000     -70.22420000
H      -44.12870000     -34.40350000     -71.00330000
H      -43.13230000     -35.37380000     -69.85650000
C      -44.89980000     -34.49060000     -69.07100000
C      -45.44830000     -35.16500000     -68.00630000
C      -45.08250000     -33.05550000     -68.94440000
H      -45.33370000     -36.20220000     -67.75230000
C      -45.90570000     -32.75440000     -67.89050000
C      -44.69910000     -31.81900000     -69.70530000
C      -45.33380000     -30.75040000     -69.24460000
S      -46.40530000     -34.15580000     -66.90020000
S      -46.31710000     -31.06430000     -67.81420000
H      -45.21220000     -29.72990000     -69.57970000
