40
Properties=species:S:1:pos:R:3 #=T CELL(abcABC):=T 1.889726e+02=T 90.00000=T Traj:=T positionsangstrom=T Step:=T 0=T Bead:=T pbc="F F F"
C      -45.93300000     -32.59870000     -75.76490000
C      -44.75590000     -33.00420000     -75.02460000
C      -44.72260000     -34.18600000     -74.34080000
C      -45.87480000     -35.06220000     -74.34790000
C      -46.90280000     -34.73460000     -75.18690000
C      -46.93560000     -33.53940000     -75.86440000
H      -46.06650000     -31.59510000     -76.16600000
H      -43.84290000     -34.40990000     -73.88460000
H      -47.73510000     -35.31910000     -75.05170000
H      -47.88010000     -33.26010000     -76.37570000
C      -45.85300000     -36.29800000     -73.51180000
H      -44.86240000     -36.72660000     -73.39100000
H      -46.42920000     -37.10760000     -74.06870000
C      -43.58160000     -32.10170000     -75.03650000
H      -42.64320000     -32.62400000     -75.09440000
H      -43.62110000     -31.45970000     -75.95170000
S      -46.38270000     -35.92140000     -71.74920000
S      -43.23760000     -31.05650000     -73.53840000
C      -44.86330000     -36.39890000     -70.74630000
H      -45.14680000     -37.22530000     -70.04120000
H      -44.15940000     -36.90140000     -71.43100000
C      -44.64470000     -31.28540000     -72.30660000
H      -45.27360000     -31.98390000     -72.91350000
H      -45.21390000     -30.30390000     -72.25650000
C      -44.07430000     -31.84000000     -71.04680000
H      -43.66540000     -32.82660000     -71.33770000
H      -43.13930000     -31.28260000     -70.79300000
C      -44.21430000     -35.15840000     -70.17900000
H      -44.03480000     -34.54090000     -71.04990000
H      -43.26320000     -35.42220000     -69.82370000
C      -45.01450000     -34.40580000     -69.11020000
C      -45.57520000     -35.11820000     -68.05300000
C      -45.22950000     -32.98990000     -69.01720000
H      -45.53050000     -36.19660000     -67.92600000
C      -45.93800000     -32.75280000     -67.82450000
C      -44.94160000     -31.83310000     -69.77460000
C      -45.26520000     -30.67940000     -69.12960000
S      -46.28500000     -34.10000000     -66.79350000
S      -46.02460000     -31.02980000     -67.54530000
H      -45.11880000     -29.68330000     -69.48400000
