40
Properties=species:S:1:pos:R:3 #=T CELL(abcABC):=T 1.889726e+02=T 90.00000=T Traj:=T positionsangstrom=T Step:=T 0=T Bead:=T pbc="F F F"
C      -46.32770000     -32.50840000     -74.63890000
C      -44.96350000     -32.84550000     -74.46510000
C      -44.69600000     -34.21360000     -74.33970000
C      -45.73580000     -35.13430000     -74.04740000
C      -47.08320000     -34.76230000     -74.21820000
C      -47.35670000     -33.48910000     -74.58830000
H      -46.55790000     -31.49270000     -74.93920000
H      -43.64540000     -34.66000000     -74.23090000
H      -47.86580000     -35.47860000     -74.08750000
H      -48.35370000     -33.13890000     -74.84560000
C      -45.35460000     -36.58650000     -73.78690000
H      -44.41730000     -36.87620000     -74.24160000
H      -46.12610000     -37.21400000     -74.24570000
C      -43.90580000     -31.87080000     -74.53650000
H      -42.89740000     -32.31350000     -74.21420000
H      -43.96680000     -31.52630000     -75.51790000
S      -45.29310000     -36.86210000     -71.90880000
S      -44.26790000     -30.39900000     -73.42670000
C      -43.81420000     -35.87610000     -71.40650000
H      -43.43880000     -36.38670000     -70.48670000
H      -43.03860000     -36.01170000     -72.17430000
C      -45.12640000     -30.88280000     -71.94030000
H      -45.82260000     -31.77110000     -72.00290000
H      -45.90120000     -30.15540000     -71.76030000
C      -44.09810000     -31.11240000     -70.86860000
H      -43.47870000     -31.95080000     -71.24330000
H      -43.65580000     -30.11730000     -70.71080000
C      -44.10420000     -34.42960000     -71.08370000
H      -44.74320000     -34.06940000     -71.89450000
H      -43.27850000     -33.75220000     -71.21350000
C      -44.79660000     -34.24310000     -69.73630000
C      -45.21430000     -35.24040000     -68.89160000
C      -45.12000000     -32.91920000     -69.25330000
H      -44.98980000     -36.28830000     -69.06410000
C      -45.82290000     -32.97310000     -68.03750000
C      -44.91540000     -31.57880000     -69.69530000
C      -45.56530000     -30.66250000     -68.89350000
S      -46.13600000     -34.63950000     -67.52710000
S      -46.34790000     -31.39290000     -67.48820000
H      -45.58850000     -29.62120000     -69.02430000
