40
Properties=species:S:1:pos:R:3 #=T CELL(abcABC):=T 1.889726e+02=T 90.00000=T Traj:=T positionsangstrom=T Step:=T 0=T Bead:=T pbc="F F F"
C      -41.44490000     -34.21470000     -71.45870000
C      -42.57760000     -33.38700000     -71.50400000
C      -43.78280000     -33.80610000     -70.91510000
C      -43.91350000     -35.08770000     -70.34600000
C      -42.80220000     -35.94060000     -70.39020000
C      -41.55030000     -35.50330000     -70.88310000
H      -40.52140000     -33.95320000     -71.99210000
H      -44.58360000     -33.01040000     -70.70780000
H      -42.98250000     -36.85420000     -69.80630000
H      -40.68190000     -36.08470000     -70.72880000
C      -45.17060000     -35.53850000     -69.59080000
H      -45.64720000     -34.67990000     -69.24990000
H      -44.78180000     -36.15720000     -68.78960000
C      -42.57150000     -32.09420000     -72.20540000
H      -43.02250000     -31.23080000     -71.75160000
H      -41.51340000     -31.83400000     -72.40870000
S      -46.32010000     -36.73240000     -70.45340000
S      -43.27980000     -32.17110000     -73.95850000
C      -46.78490000     -35.95870000     -72.06280000
H      -45.93540000     -35.41540000     -72.45530000
H      -46.96370000     -36.70700000     -72.82150000
C      -44.63880000     -33.30450000     -73.94390000
H      -44.68040000     -34.07690000     -73.19370000
H      -44.61020000     -33.84710000     -74.84210000
C      -46.01970000     -32.59840000     -73.83010000
H      -46.12550000     -31.87600000     -74.60720000
H      -46.78210000     -33.28900000     -74.06870000
C      -47.87340000     -34.86830000     -71.97990000
H      -48.78380000     -35.32630000     -71.71020000
H      -47.99710000     -34.42790000     -72.98880000
C      -47.58210000     -33.69090000     -70.95450000
C      -48.22420000     -33.56210000     -69.77560000
C      -46.91740000     -32.45200000     -71.32360000
H      -48.92870000     -34.34510000     -69.38050000
C      -46.86870000     -31.57420000     -70.26050000
C      -46.18510000     -31.92560000     -72.44460000
C      -45.51220000     -30.79050000     -72.13160000
S      -47.84430000     -32.08660000     -68.89690000
S      -45.88370000     -30.11770000     -70.55920000
H      -45.07920000     -30.03960000     -72.91520000
