40
Properties=species:S:1:pos:R:3 #=T CELL(abcABC):=T 1.889726e+02=T 90.00000=T Traj:=T positionsangstrom=T Step:=T 0=T Bead:=T pbc="F F F"
C      -41.61180000     -34.25350000     -71.56030000
C      -42.73770000     -33.41010000     -71.51200000
C      -43.78160000     -33.79410000     -70.68620000
C      -43.80000000     -35.04970000     -70.05230000
C      -42.64550000     -35.85230000     -70.09820000
C      -41.55050000     -35.43260000     -70.84440000
H      -40.71290000     -33.95500000     -72.16040000
H      -44.67410000     -33.20400000     -70.61840000
H      -42.69450000     -36.79230000     -69.60300000
H      -40.76500000     -36.24950000     -70.97110000
C      -45.06150000     -35.50140000     -69.42160000
H      -45.76620000     -34.71550000     -69.09510000
H      -44.79500000     -36.12200000     -68.62790000
C      -42.68910000     -32.11330000     -72.18090000
H      -43.15610000     -31.37440000     -71.53760000
H      -41.65290000     -31.85420000     -72.18620000
S      -46.03660000     -36.64660000     -70.45280000
S      -43.15370000     -32.18410000     -73.99800000
C      -46.49050000     -35.61400000     -71.91920000
H      -45.77270000     -34.83760000     -71.98210000
H      -46.42240000     -36.19380000     -72.83400000
C      -44.66900000     -33.30250000     -74.13430000
H      -44.58610000     -34.05670000     -73.43610000
H      -44.64540000     -33.75110000     -75.11370000
C      -46.09230000     -32.62160000     -73.97500000
H      -46.05720000     -31.91350000     -74.81730000
H      -46.82000000     -33.42070000     -74.20430000
C      -47.91980000     -34.98100000     -71.80170000
H      -48.67330000     -35.72970000     -71.46610000
H      -48.16650000     -34.58640000     -72.82160000
C      -47.74520000     -33.75870000     -70.95010000
C      -48.02340000     -33.73210000     -69.58380000
C      -47.06150000     -32.54380000     -71.42000000
H      -48.67620000     -34.42860000     -69.04550000
C      -47.03690000     -31.55800000     -70.39300000
C      -46.37180000     -31.98560000     -72.62140000
C      -45.86540000     -30.72100000     -72.36150000
S      -47.61300000     -32.21180000     -68.82370000
S      -46.26060000     -30.08710000     -70.80010000
H      -45.24420000     -30.13150000     -73.10010000
