40
Properties=species:S:1:pos:R:3 #=T CELL(abcABC):=T 1.889726e+02=T 90.00000=T Traj:=T positionsangstrom=T Step:=T 0=T Bead:=T pbc="F F F"
C      -41.88350000     -34.70580000     -71.99870000
C      -42.81230000     -33.77100000     -71.52220000
C      -43.85380000     -34.19320000     -70.65670000
C      -44.04200000     -35.56140000     -70.37530000
C      -43.17000000     -36.48890000     -70.95070000
C      -41.99990000     -36.04440000     -71.67590000
H      -41.02080000     -34.47290000     -72.60580000
H      -44.41390000     -33.35420000     -70.19470000
H      -43.33900000     -37.54390000     -70.69520000
H      -41.38380000     -36.68660000     -72.21050000
C      -45.23880000     -35.95010000     -69.47970000
H      -45.63140000     -34.98100000     -69.12810000
H      -44.95440000     -36.54440000     -68.63820000
C      -42.67230000     -32.31100000     -71.87210000
H      -43.29030000     -31.65420000     -71.29930000
H      -41.64120000     -31.93690000     -71.64520000
S      -46.51340000     -36.81120000     -70.50620000
S      -43.04800000     -31.86670000     -73.64550000
C      -46.55330000     -35.69960000     -72.07290000
H      -45.58110000     -35.29320000     -72.22220000
H      -46.71020000     -36.25200000     -72.92800000
C      -44.46610000     -33.00890000     -74.02190000
H      -44.52670000     -33.94360000     -73.47080000
H      -44.40680000     -33.23450000     -75.09370000
C      -45.75490000     -32.23730000     -73.77650000
H      -45.86600000     -31.42380000     -74.50920000
H      -46.43460000     -33.03360000     -73.88940000
C      -47.62890000     -34.63740000     -72.06770000
H      -48.60480000     -35.04170000     -71.90800000
H      -47.77260000     -34.22730000     -73.05180000
C      -47.36690000     -33.51210000     -71.08460000
C      -48.03930000     -33.52640000     -69.89050000
C      -46.68840000     -32.27220000     -71.20690000
H      -48.59640000     -34.33640000     -69.35360000
C      -46.85220000     -31.40130000     -70.10720000
C      -45.94960000     -31.67700000     -72.35930000
C      -45.49830000     -30.42440000     -72.03460000
S      -47.72500000     -32.16050000     -68.82110000
S      -46.04070000     -29.82850000     -70.42940000
H      -44.86890000     -29.80790000     -72.65600000
