40
Properties=species:S:1:pos:R:3 #=T CELL(abcABC):=T 1.889726e+02=T 90.00000=T Traj:=T positionsangstrom=T Step:=T 0=T Bead:=T pbc="F F F"
C      -41.48510000     -34.46860000     -71.63880000
C      -42.55990000     -33.57190000     -71.50660000
C      -43.69970000     -33.95040000     -70.77960000
C      -43.83050000     -35.18690000     -70.16610000
C      -42.76870000     -36.06800000     -70.27030000
C      -41.61040000     -35.73110000     -71.05200000
H      -40.54170000     -34.09140000     -72.08500000
H      -44.56900000     -33.26560000     -70.87190000
H      -42.83770000     -37.05770000     -69.80440000
H      -40.84090000     -36.48340000     -71.25680000
C      -45.11990000     -35.47290000     -69.57450000
H      -45.80680000     -34.63690000     -69.32900000
H      -45.01600000     -36.15190000     -68.65650000
C      -42.59450000     -32.15900000     -72.13740000
H      -43.19360000     -31.51080000     -71.46630000
H      -41.59590000     -31.78760000     -72.02660000
S      -46.16280000     -36.65460000     -70.65110000
S      -43.12880000     -32.14570000     -73.95830000
C      -46.73050000     -35.59060000     -72.09680000
H      -45.89280000     -34.87180000     -72.19040000
H      -46.84270000     -36.27250000     -72.96840000
C      -44.67580000     -33.23800000     -74.05880000
H      -44.56390000     -33.98760000     -73.30440000
H      -44.54680000     -33.66840000     -75.09630000
C      -45.99960000     -32.49930000     -73.87740000
H      -46.08320000     -31.67430000     -74.66090000
H      -46.76210000     -33.24830000     -74.26080000
C      -48.02010000     -34.87810000     -71.84670000
H      -48.78500000     -35.43090000     -71.29680000
H      -48.48970000     -34.65610000     -72.90890000
C      -47.86070000     -33.59300000     -71.01520000
C      -48.40750000     -33.51360000     -69.77850000
C      -46.98400000     -32.43990000     -71.31610000
H      -49.04380000     -34.30800000     -69.35540000
C      -46.93750000     -31.55720000     -70.22310000
C      -46.31060000     -31.82580000     -72.47240000
C      -45.74830000     -30.63020000     -72.17410000
S      -47.80190000     -32.14340000     -68.80830000
S      -45.85870000     -30.13810000     -70.45620000
H      -45.16120000     -29.95250000     -72.88060000
