40
Properties=species:S:1:pos:R:3 #=T CELL(abcABC):=T 1.889726e+02=T 90.00000=T Traj:=T positionsangstrom=T Step:=T 0=T Bead:=T pbc="F F F"
C      -41.58110000     -34.55210000     -71.78840000
C      -42.61300000     -33.61350000     -71.62100000
C      -43.70210000     -34.02510000     -70.85600000
C      -43.90130000     -35.27970000     -70.31400000
C      -42.94760000     -36.30040000     -70.64510000
C      -41.80680000     -35.90830000     -71.31400000
H      -40.73820000     -34.34090000     -72.43280000
H      -44.55490000     -33.39080000     -70.69910000
H      -43.20210000     -37.34850000     -70.39300000
H      -41.02480000     -36.70070000     -71.28120000
C      -45.18610000     -35.56210000     -69.56010000
H      -45.68160000     -34.61530000     -69.36460000
H      -44.83550000     -36.01770000     -68.61790000
C      -42.51590000     -32.25190000     -72.13330000
H      -43.04170000     -31.57700000     -71.45640000
H      -41.52380000     -31.81600000     -72.18520000
S      -46.33090000     -36.68610000     -70.57920000
S      -43.12130000     -32.05540000     -73.87420000
C      -46.62120000     -35.71150000     -72.09330000
H      -45.67460000     -35.27840000     -72.38360000
H      -46.80460000     -36.44710000     -72.83480000
C      -44.65110000     -33.12380000     -73.95330000
H      -44.38700000     -33.87050000     -73.18300000
H      -44.64380000     -33.60260000     -74.89920000
C      -46.03570000     -32.49010000     -73.69690000
H      -46.13090000     -31.74660000     -74.50500000
H      -46.80630000     -33.25410000     -73.96720000
C      -47.82080000     -34.71870000     -71.99170000
H      -48.78440000     -35.19470000     -71.58720000
H      -48.09560000     -34.24140000     -72.91360000
C      -47.61940000     -33.63650000     -71.00610000
C      -48.19680000     -33.55590000     -69.75210000
C      -46.82360000     -32.42500000     -71.23360000
H      -48.95930000     -34.21440000     -69.47710000
C      -46.87000000     -31.50400000     -70.12970000
C      -46.08410000     -31.86260000     -72.31070000
C      -45.61040000     -30.60520000     -72.03030000
S      -47.78080000     -32.08930000     -68.81850000
S      -46.01790000     -29.95370000     -70.42160000
H      -45.18970000     -29.90010000     -72.67260000
