40
Properties=species:S:1:pos:R:3 #=T CELL(abcABC):=T 1.889726e+02=T 90.00000=T Traj:=T positionsangstrom=T Step:=T 0=T Bead:=T pbc="F F F"
C      -41.51600000     -34.16150000     -71.46850000
C      -42.67300000     -33.39840000     -71.56210000
C      -43.84500000     -33.83970000     -71.00580000
C      -43.91330000     -35.13070000     -70.39030000
C      -42.71610000     -35.86380000     -70.22770000
C      -41.53660000     -35.36610000     -70.78670000
H      -40.58690000     -33.74740000     -71.90050000
H      -44.79310000     -33.26320000     -71.11140000
H      -42.80650000     -36.87320000     -69.83190000
H      -40.57080000     -35.82030000     -70.59640000
C      -45.18380000     -35.50460000     -69.55720000
H      -45.84210000     -34.59210000     -69.43110000
H      -45.08970000     -35.78380000     -68.48020000
C      -42.69680000     -32.11670000     -72.25880000
H      -43.53140000     -31.47950000     -71.87530000
H      -41.74830000     -31.58170000     -72.10140000
S      -46.28230000     -36.75080000     -70.35090000
S      -43.15180000     -32.13820000     -74.04110000
C      -46.76120000     -35.87220000     -71.94370000
H      -45.83170000     -35.34530000     -72.28440000
H      -46.93060000     -36.76980000     -72.56750000
C      -44.56740000     -33.31360000     -74.04070000
H      -44.25420000     -34.18480000     -73.35020000
H      -44.53100000     -33.70480000     -75.07080000
C      -46.04050000     -32.75720000     -73.79440000
H      -46.40380000     -32.12270000     -74.62940000
H      -46.59650000     -33.69260000     -73.71740000
C      -47.95750000     -34.89440000     -71.92480000
H      -48.90530000     -35.37150000     -71.56220000
H      -48.16790000     -34.57070000     -72.91310000
C      -47.60970000     -33.72920000     -70.96770000
C      -48.17970000     -33.60020000     -69.72530000
C      -46.83420000     -32.54740000     -71.32260000
H      -48.80310000     -34.38980000     -69.24090000
C      -46.79710000     -31.58940000     -70.25210000
C      -46.24990000     -31.94550000     -72.50450000
C      -45.68850000     -30.69230000     -72.29290000
S      -47.72500000     -32.11200000     -68.86330000
S      -46.01550000     -30.08850000     -70.62710000
H      -44.97320000     -30.13370000     -72.99460000
