40
Properties=species:S:1:pos:R:3 #=T CELL(abcABC):=T 1.889726e+02=T 90.00000=T Traj:=T positionsangstrom=T Step:=T 0=T Bead:=T pbc="F F F"
C      -41.97260000     -34.96980000     -71.97440000
C      -42.94130000     -34.09310000     -71.45420000
C      -44.13660000     -34.54260000     -70.94630000
C      -44.43730000     -35.88020000     -71.00420000
C      -43.40410000     -36.77850000     -71.38190000
C      -42.22510000     -36.31830000     -71.96980000
H      -41.07760000     -34.47670000     -72.46970000
H      -44.90450000     -33.85750000     -70.56240000
H      -43.52860000     -37.80460000     -71.35620000
H      -41.45780000     -37.03000000     -72.24390000
C      -45.70600000     -36.34280000     -70.41840000
H      -46.20760000     -35.62950000     -69.77080000
H      -45.57590000     -37.23040000     -69.82700000
C      -42.66210000     -32.61890000     -71.40270000
H      -43.39240000     -32.13090000     -70.72750000
H      -41.62350000     -32.47180000     -71.03590000
S      -46.98510000     -36.78140000     -71.71480000
S      -42.63760000     -31.69210000     -73.05540000
C      -46.94350000     -35.23660000     -72.69030000
H      -45.93210000     -34.80100000     -72.69280000
H      -47.04100000     -35.57320000     -73.78240000
C      -44.15200000     -32.43220000     -73.75880000
H      -44.21140000     -33.50790000     -73.46840000
H      -44.07810000     -32.52480000     -74.84260000
C      -45.46570000     -31.60530000     -73.41880000
H      -45.44270000     -30.63440000     -73.90430000
H      -46.29640000     -32.17740000     -73.89960000
C      -47.93480000     -34.03480000     -72.38490000
H      -48.95960000     -34.42120000     -72.27440000
H      -48.00520000     -33.31380000     -73.20330000
C      -47.51620000     -33.24120000     -71.03660000
C      -48.12150000     -33.57570000     -69.84450000
C      -46.63620000     -32.07990000     -71.03080000
H      -49.07960000     -33.98220000     -69.71230000
C      -46.52870000     -31.53620000     -69.77730000
C      -45.82900000     -31.33400000     -72.00290000
C      -45.24400000     -30.31220000     -71.33660000
S      -47.64300000     -32.33580000     -68.66060000
S      -45.46940000     -30.12200000     -69.65080000
H      -44.54350000     -29.63360000     -71.82250000
