40
Properties=species:S:1:pos:R:3 #=T CELL(abcABC):=T 1.889726e+02=T 90.00000=T Traj:=T positionsangstrom=T Step:=T 0=T Bead:=T pbc="F F F"
C      -42.05820000     -35.38520000     -71.86190000
C      -42.78160000     -34.26320000     -71.37870000
C      -44.08590000     -34.52580000     -70.96050000
C      -44.56190000     -35.84790000     -70.80300000
C      -43.75710000     -36.93000000     -71.24310000
C      -42.51060000     -36.68200000     -71.83660000
H      -41.06000000     -35.22400000     -72.29450000
H      -44.79350000     -33.75130000     -70.62880000
H      -44.21910000     -37.90040000     -71.25510000
H      -41.99620000     -37.60730000     -72.22430000
C      -45.92340000     -36.05730000     -70.26920000
H      -46.26490000     -35.20990000     -69.66650000
H      -45.94060000     -36.98330000     -69.63350000
C      -42.19660000     -32.89960000     -71.20930000
H      -42.60530000     -32.27250000     -70.38900000
H      -41.16240000     -33.00950000     -70.92250000
S      -47.11540000     -36.36140000     -71.69890000
S      -42.33300000     -31.90800000     -72.77890000
C      -46.69480000     -35.00590000     -72.85640000
H      -45.74160000     -34.60360000     -72.68490000
H      -46.67170000     -35.48090000     -73.77550000
C      -43.95380000     -32.36350000     -73.54460000
H      -44.25430000     -33.30530000     -73.05200000
H      -43.70040000     -32.56190000     -74.62070000
C      -45.07690000     -31.31970000     -73.45750000
H      -44.82890000     -30.29980000     -73.67050000
H      -45.88190000     -31.59970000     -74.16340000
C      -47.79910000     -33.86730000     -72.76470000
H      -48.77260000     -34.41420000     -72.79830000
H      -47.89410000     -33.19170000     -73.59290000
C      -47.64270000     -33.03330000     -71.43090000
C      -48.47570000     -33.32600000     -70.34820000
C      -46.58120000     -31.99540000     -71.21830000
H      -49.34390000     -34.03760000     -70.39300000
C      -46.64920000     -31.58560000     -69.89420000
C      -45.69370000     -31.18260000     -72.03860000
C      -44.94610000     -30.46880000     -71.20210000
S      -48.01700000     -32.37470000     -68.93190000
S      -45.51230000     -30.35550000     -69.50070000
H      -44.08810000     -29.87050000     -71.50160000
