40
Properties=species:S:1:pos:R:3 #=T CELL(abcABC):=T 1.889726e+02=T 90.00000=T Traj:=T positionsangstrom=T Step:=T 0=T Bead:=T pbc="F F F"
C      -42.02690000     -34.85180000     -72.08720000
C      -42.86500000     -33.98150000     -71.31460000
C      -43.94870000     -34.54810000     -70.59660000
C      -44.20720000     -35.92800000     -70.61100000
C      -43.26130000     -36.72160000     -71.24290000
C      -42.19380000     -36.21050000     -71.95530000
H      -41.25000000     -34.48330000     -72.69170000
H      -44.73450000     -33.95200000     -70.19600000
H      -43.35260000     -37.81760000     -71.28830000
H      -41.58210000     -36.85010000     -72.54510000
C      -45.54110000     -36.42060000     -70.05910000
H      -45.83610000     -35.75200000     -69.27110000
H      -45.41080000     -37.48480000     -69.73640000
C      -42.85950000     -32.45030000     -71.42780000
H      -43.67660000     -31.97020000     -70.80540000
H      -41.94420000     -31.96090000     -71.06360000
S      -46.85650000     -36.67350000     -71.44280000
S      -42.93690000     -31.89270000     -73.18970000
C      -46.59810000     -35.21660000     -72.52630000
H      -45.55260000     -34.83000000     -72.35090000
H      -46.59120000     -35.60720000     -73.61650000
C      -44.55930000     -32.59900000     -73.75220000
H      -44.67850000     -33.46850000     -73.16970000
H      -44.49680000     -32.79140000     -74.82070000
C      -45.84700000     -31.71420000     -73.60470000
H      -45.71870000     -30.87690000     -74.29030000
H      -46.69470000     -32.33920000     -73.88590000
C      -47.65210000     -34.18520000     -72.38810000
H      -48.68140000     -34.59340000     -72.45100000
H      -47.56740000     -33.54860000     -73.24870000
C      -47.45190000     -33.24090000     -71.16060000
C      -47.91870000     -33.62940000     -69.89480000
C      -46.70910000     -32.01860000     -71.18360000
H      -48.08460000     -34.68890000     -69.61900000
C      -46.64370000     -31.43980000     -69.86960000
C      -46.03440000     -31.21310000     -72.19310000
C      -45.46680000     -30.07930000     -71.61800000
S      -47.33060000     -32.53470000     -68.68940000
S      -45.65790000     -29.97700000     -69.90670000
H      -44.87550000     -29.28450000     -72.01350000
