40
Properties=species:S:1:pos:R:3 #=T CELL(abcABC):=T 1.889726e+02=T 90.00000=T Traj:=T positionsangstrom=T Step:=T 0=T Bead:=T pbc="F F F"
C      -41.97540000     -34.90590000     -71.90830000
C      -42.90750000     -34.06270000     -71.30660000
C      -44.08220000     -34.57170000     -70.71040000
C      -44.31550000     -35.97300000     -70.75310000
C      -43.36940000     -36.77590000     -71.41360000
C      -42.23700000     -36.29510000     -72.02290000
H      -41.00550000     -34.61460000     -72.36980000
H      -44.77820000     -33.90140000     -70.24310000
H      -43.54840000     -37.80980000     -71.49650000
H      -41.64770000     -36.95120000     -72.58930000
C      -45.59330000     -36.52290000     -70.27490000
H      -45.89990000     -35.85210000     -69.45120000
H      -45.43990000     -37.51750000     -69.85010000
C      -42.64420000     -32.60290000     -71.36660000
H      -43.35640000     -32.21780000     -70.70600000
H      -41.62300000     -32.31890000     -71.02040000
S      -46.81430000     -36.64880000     -71.55820000
S      -42.96180000     -31.77230000     -73.07740000
C      -46.75790000     -35.12530000     -72.66500000
H      -45.86230000     -34.59490000     -72.66610000
H      -46.97580000     -35.52390000     -73.62450000
C      -44.50660000     -32.46900000     -73.83230000
H      -44.58400000     -33.47520000     -73.45510000
H      -44.37080000     -32.51730000     -74.96070000
C      -45.75620000     -31.56970000     -73.55750000
H      -45.59170000     -30.61740000     -74.07320000
H      -46.62130000     -32.02010000     -74.02600000
C      -47.87150000     -34.10210000     -72.37270000
H      -48.89140000     -34.53090000     -72.21900000
H      -47.88170000     -33.54000000     -73.27940000
C      -47.45970000     -33.29960000     -71.09540000
C      -48.03100000     -33.52470000     -69.85800000
C      -46.69230000     -32.10300000     -71.14550000
H      -48.62260000     -34.44170000     -69.58770000
C      -46.44850000     -31.57920000     -69.88580000
C      -45.95270000     -31.27590000     -72.14220000
C      -45.25480000     -30.23970000     -71.58190000
S      -47.41440000     -32.35740000     -68.69950000
S      -45.54120000     -30.10640000     -69.72010000
H      -44.77930000     -29.44910000     -72.10880000
