40
Properties=species:S:1:pos:R:3 #=T CELL(abcABC):=T 1.889726e+02=T 90.00000=T Traj:=T positionsangstrom=T Step:=T 0=T Bead:=T pbc="F F F"
C      -41.87300000     -35.04110000     -71.78090000
C      -42.68870000     -34.09250000     -71.28450000
C      -43.96030000     -34.39160000     -70.80770000
C      -44.48190000     -35.67020000     -70.97070000
C      -43.63650000     -36.67330000     -71.49750000
C      -42.31810000     -36.39070000     -71.92620000
H      -40.95020000     -34.79550000     -72.18470000
H      -44.58060000     -33.65310000     -70.30390000
H      -44.13500000     -37.68630000     -71.70370000
H      -41.77630000     -37.12740000     -72.52680000
C      -45.81500000     -36.09790000     -70.50680000
H      -46.21280000     -35.35500000     -69.81090000
H      -45.71000000     -36.91470000     -69.85690000
C      -42.29970000     -32.68710000     -71.22990000
H      -42.88950000     -32.15030000     -70.52130000
H      -41.22720000     -32.51920000     -71.08700000
S      -46.97820000     -36.48470000     -71.84060000
S      -42.53000000     -32.09000000     -73.00040000
C      -47.04440000     -35.02140000     -72.98610000
H      -46.04030000     -34.63530000     -73.13500000
H      -47.44660000     -35.27120000     -73.95360000
C      -44.26950000     -32.67660000     -73.50370000
H      -44.45930000     -33.55130000     -72.84800000
H      -44.25940000     -33.15910000     -74.50300000
C      -45.34030000     -31.54540000     -73.40720000
H      -45.05630000     -30.57610000     -73.85110000
H      -46.21380000     -31.82870000     -73.93440000
C      -47.96790000     -33.94400000     -72.59920000
H      -48.99700000     -34.28080000     -72.64250000
H      -47.88630000     -33.20350000     -73.42570000
C      -47.59440000     -33.19020000     -71.22540000
C      -48.28570000     -33.45360000     -70.03690000
C      -46.64840000     -32.10140000     -71.10730000
H      -48.93890000     -34.31640000     -69.83410000
C      -46.52040000     -31.59690000     -69.78490000
C      -45.80900000     -31.31000000     -71.95920000
C      -45.24540000     -30.27180000     -71.27180000
S      -47.63680000     -32.45900000     -68.71130000
S      -45.60940000     -30.21020000     -69.50130000
H      -44.65630000     -29.48070000     -71.73630000
