40
Properties=species:S:1:pos:R:3 #=T CELL(abcABC):=T 1.889726e+02=T 90.00000=T Traj:=T positionsangstrom=T Step:=T 0=T Bead:=T pbc="F F F"
C      -42.16180000     -35.38310000     -71.80870000
C      -42.84450000     -34.28300000     -71.26630000
C      -44.12260000     -34.63770000     -70.70210000
C      -44.62830000     -35.91920000     -70.68800000
C      -43.87870000     -36.98220000     -71.21620000
C      -42.67070000     -36.64670000     -71.75360000
H      -41.20230000     -35.16560000     -72.37820000
H      -44.72730000     -33.84020000     -70.34470000
H      -44.30430000     -38.00160000     -71.14100000
H      -42.08580000     -37.45250000     -72.13630000
C      -46.09220000     -36.14640000     -70.31990000
H      -46.39810000     -35.32940000     -69.64770000
H      -46.17700000     -37.02320000     -69.63860000
C      -42.33980000     -32.86510000     -71.31470000
H      -42.95690000     -32.23010000     -70.65900000
H      -41.33340000     -32.88550000     -70.90730000
S      -47.33850000     -36.38010000     -71.73680000
S      -42.23220000     -31.83760000     -72.87090000
C      -46.77380000     -35.04100000     -72.96870000
H      -45.66060000     -34.85900000     -72.97180000
H      -47.04270000     -35.55110000     -73.96460000
C      -43.69440000     -32.30680000     -73.77690000
H      -43.76150000     -33.39380000     -73.59700000
H      -43.54850000     -32.22550000     -74.86720000
C      -45.00650000     -31.53390000     -73.32950000
H      -44.89420000     -30.47250000     -73.81890000
H      -45.83970000     -32.06590000     -73.81830000
C      -47.62740000     -33.78790000     -72.85540000
H      -48.67600000     -34.07330000     -72.89700000
H      -47.33270000     -33.15890000     -73.76040000
C      -47.48080000     -32.97460000     -71.58110000
C      -48.50540000     -33.03870000     -70.63990000
C      -46.43260000     -31.99470000     -71.16610000
H      -49.38380000     -33.64720000     -70.75900000
C      -46.63850000     -31.54380000     -69.86640000
C      -45.35330000     -31.28960000     -71.83710000
C      -44.74030000     -30.52370000     -70.90400000
S      -48.09650000     -32.26540000     -69.10210000
S      -45.45920000     -30.46070000     -69.28710000
H      -43.89270000     -29.83530000     -71.06120000
