40
Properties=species:S:1:pos:R:3 #=T CELL(abcABC):=T 1.889726e+02=T 90.00000=T Traj:=T positionsangstrom=T Step:=T 0=T Bead:=T pbc="F F F"
C      -42.01280000     -35.49010000     -71.66720000
C      -42.64100000     -34.39310000     -71.08310000
C      -43.95380000     -34.48640000     -70.51760000
C      -44.71640000     -35.62890000     -70.79810000
C      -44.13570000     -36.68090000     -71.47970000
C      -42.80710000     -36.68560000     -71.75900000
H      -41.01930000     -35.39180000     -71.97800000
H      -44.34100000     -33.59620000     -69.94560000
H      -44.73980000     -37.52850000     -71.72680000
H      -42.37620000     -37.58890000     -72.21760000
C      -46.16890000     -35.63900000     -70.34740000
H      -46.39980000     -34.65080000     -69.93230000
H      -46.29380000     -36.35450000     -69.53450000
C      -41.97110000     -33.02700000     -71.02080000
H      -42.33580000     -32.44080000     -70.19500000
H      -40.87510000     -33.01200000     -70.75390000
S      -47.44350000     -36.10130000     -71.67750000
S      -42.02140000     -32.19720000     -72.71150000
C      -46.96740000     -34.87600000     -72.95300000
H      -45.83460000     -34.59500000     -72.89980000
H      -47.08220000     -35.51900000     -73.86700000
C      -43.77080000     -32.65130000     -73.34310000
H      -44.02290000     -33.50230000     -72.77480000
H      -43.48820000     -33.01880000     -74.35080000
C      -44.88370000     -31.59930000     -73.24200000
H      -44.54620000     -30.68710000     -73.71220000
H      -45.63520000     -31.99400000     -73.92970000
C      -47.82300000     -33.60630000     -73.04420000
H      -48.87440000     -33.84670000     -73.29330000
H      -47.51100000     -33.01630000     -73.93460000
C      -47.66050000     -32.84330000     -71.78240000
C      -48.57990000     -33.14990000     -70.73620000
C      -46.62120000     -31.96890000     -71.34370000
H      -49.44260000     -33.80660000     -70.64820000
C      -46.71640000     -31.56030000     -69.99860000
C      -45.39920000     -31.30910000     -71.92340000
C      -44.79910000     -30.53370000     -71.00750000
S      -47.98640000     -32.45470000     -69.24550000
S      -45.45410000     -30.49620000     -69.38700000
H      -43.84470000     -30.09820000     -71.26730000
