40
Properties=species:S:1:pos:R:3 #=T CELL(abcABC):=T 1.889726e+02=T 90.00000=T Traj:=T positionsangstrom=T Step:=T 0=T Bead:=T pbc="F F F"
C      -42.47540000     -33.05550000     -67.82350000
C      -43.82380000     -33.30730000     -68.05760000
C      -44.23650000     -34.52060000     -68.67940000
C      -43.31800000     -35.47960000     -69.05040000
C      -41.97980000     -35.30090000     -68.75780000
C      -41.59230000     -34.14150000     -68.07640000
H      -42.12780000     -32.14580000     -67.36590000
H      -45.25390000     -34.65510000     -69.01200000
H      -41.21980000     -36.05760000     -68.99740000
H      -40.51790000     -34.02610000     -67.83280000
C      -43.82500000     -36.62070000     -69.86020000
H      -44.90370000     -36.84850000     -69.79970000
H      -43.29020000     -37.53800000     -69.55890000
C      -44.84310000     -32.18990000     -67.91810000
H      -45.83550000     -32.52940000     -68.34890000
H      -45.21500000     -31.78970000     -66.94060000
S      -43.30860000     -36.54520000     -71.70640000
S      -44.19080000     -30.73910000     -68.82880000
C      -44.11540000     -35.09060000     -72.42610000
H      -43.54530000     -34.24410000     -72.05540000
H      -43.97010000     -35.01530000     -73.47100000
C      -45.24180000     -30.56800000     -70.31090000
H      -44.63410000     -30.00480000     -71.00680000
H      -46.21750000     -29.89100000     -70.21240000
C      -45.65530000     -31.91590000     -70.94770000
H      -44.74980000     -32.40430000     -71.33610000
H      -46.20450000     -32.46070000     -70.11230000
C      -45.61080000     -34.92570000     -72.11440000
H      -45.73380000     -34.29800000     -71.30770000
H      -46.07960000     -35.94630000     -71.92750000
C      -46.37790000     -34.20350000     -73.20600000
C      -46.74690000     -34.83380000     -74.39150000
C      -46.85830000     -32.81870000     -73.09770000
H      -46.72410000     -35.90990000     -74.62770000
C      -47.83760000     -32.59120000     -74.04830000
C      -46.66460000     -31.75550000     -72.12250000
C      -47.57640000     -30.75490000     -72.31980000
S      -48.05240000     -33.87850000     -75.20000000
S      -48.57010000     -31.01360000     -73.82890000
H      -47.69520000     -29.88400000     -71.72170000
