40
Properties=species:S:1:pos:R:3 #=T CELL(abcABC):=T 1.889726e+02=T 90.00000=T Traj:=T positionsangstrom=T Step:=T 0=T Bead:=T pbc="F F F"
C      -43.56820000     -33.34330000     -68.51430000
C      -43.13350000     -34.46530000     -69.20250000
C      -42.40520000     -34.23700000     -70.44420000
C      -42.11620000     -32.95970000     -70.87920000
C      -42.57310000     -31.81580000     -70.17090000
C      -43.32150000     -32.09540000     -69.04480000
H      -43.94340000     -33.32700000     -67.45870000
H      -42.00500000     -35.05610000     -70.97040000
H      -42.22080000     -30.80390000     -70.43110000
H      -43.52900000     -31.21550000     -68.44080000
C      -41.25260000     -32.74160000     -72.13180000
H      -40.57090000     -33.62070000     -72.31530000
H      -40.66530000     -31.84990000     -72.06880000
C      -43.39600000     -35.89620000     -68.59740000
H      -42.43980000     -36.42320000     -68.48350000
H      -43.63050000     -35.74450000     -67.50220000
S      -42.23130000     -32.54350000     -73.75430000
S      -44.65950000     -36.87440000     -69.51300000
C      -43.90140000     -32.03810000     -73.08510000
H      -43.91040000     -31.76610000     -71.99950000
H      -44.14280000     -31.04120000     -73.52190000
C      -46.07790000     -35.63530000     -69.47320000
H      -46.05840000     -35.30530000     -68.43050000
H      -47.00470000     -36.16370000     -69.60940000
C      -45.88850000     -34.54210000     -70.52930000
H      -45.10320000     -33.73150000     -70.40130000
H      -45.69290000     -35.22970000     -71.39380000
C      -44.94570000     -33.12130000     -73.39360000
H      -44.65490000     -34.06970000     -72.88100000
H      -44.72950000     -33.37840000     -74.42550000
C      -46.36700000     -32.71800000     -73.09780000
C      -47.01410000     -31.95270000     -74.07150000
C      -47.18960000     -32.84630000     -71.94590000
H      -46.59840000     -31.61450000     -74.98140000
C      -48.47790000     -32.30760000     -72.06280000
C      -47.05860000     -33.65760000     -70.76330000
C      -48.29340000     -33.93200000     -70.18850000
S      -48.62730000     -31.47880000     -73.56960000
S      -49.54580000     -32.72150000     -70.80440000
H      -48.47860000     -34.34340000     -69.20570000
