40
Properties=species:S:1:pos:R:3 #=T CELL(abcABC):=T 1.889726e+02=T 90.00000=T Traj:=T positionsangstrom=T Step:=T 0=T Bead:=T pbc="F F F"
C      -43.09480000     -31.76290000     -74.62030000
C      -43.60730000     -33.00680000     -74.35990000
C      -43.29680000     -33.60590000     -73.14200000
C      -42.30890000     -33.05970000     -72.28180000
C      -41.80010000     -31.81810000     -72.58590000
C      -42.18610000     -31.15200000     -73.75530000
H      -43.28140000     -31.39210000     -75.59870000
H      -43.65240000     -34.64180000     -72.91390000
H      -40.92310000     -31.22290000     -72.12850000
H      -41.61680000     -30.28050000     -73.99310000
C      -41.70790000     -33.70440000     -71.03050000
H      -40.66190000     -33.39470000     -70.75930000
H      -41.64460000     -34.77230000     -71.26460000
C      -44.55380000     -33.64970000     -75.27800000
H      -44.37100000     -33.62140000     -76.34420000
H      -44.58440000     -34.71940000     -74.87860000
S      -42.76210000     -33.65190000     -69.49780000
S      -46.35380000     -32.94840000     -75.25200000
C      -43.48270000     -31.94260000     -69.44620000
H      -43.41530000     -31.54260000     -68.38110000
H      -42.78910000     -31.32050000     -70.03390000
C      -47.03450000     -33.74390000     -73.73110000
H      -46.47730000     -34.65850000     -73.58840000
H      -48.02270000     -34.00880000     -73.96400000
C      -47.09900000     -32.86270000     -72.52210000
H      -46.12760000     -32.33370000     -72.30160000
H      -47.79840000     -31.99990000     -72.65980000
C      -44.93250000     -31.90870000     -69.96060000
H      -44.84020000     -32.09430000     -71.09540000
H      -45.40310000     -30.96280000     -69.95220000
C      -45.81280000     -32.91990000     -69.26940000
C      -45.67210000     -33.20960000     -67.93890000
C      -46.90740000     -33.60260000     -69.91850000
H      -44.86370000     -32.70460000     -67.43630000
C      -47.52270000     -34.43640000     -68.96760000
C      -47.54990000     -33.59980000     -71.23320000
C      -48.65000000     -34.43990000     -71.16280000
S      -46.78480000     -34.44920000     -67.37480000
S      -48.93360000     -35.22000000     -69.64290000
H      -49.36460000     -34.73670000     -71.94090000
