40
Properties=species:S:1:pos:R:3 #=T CELL(abcABC):=T 1.889726e+02=T 90.00000=T Traj:=T positionsangstrom=T Step:=T 0=T Bead:=T pbc="F F F"
C      -42.89980000     -33.80380000     -68.20810000
C      -42.83750000     -34.80110000     -69.27040000
C      -42.20260000     -34.45070000     -70.46290000
C      -41.95350000     -33.09040000     -70.82410000
C      -41.94510000     -32.17320000     -69.82100000
C      -42.40100000     -32.52780000     -68.47240000
H      -43.21070000     -34.08190000     -67.17290000
H      -42.10580000     -35.14620000     -71.27880000
H      -41.58740000     -31.16270000     -69.95380000
H      -42.27070000     -31.87080000     -67.57340000
C      -41.44770000     -32.73570000     -72.10610000
H      -40.44280000     -33.26990000     -72.26780000
H      -41.17150000     -31.63030000     -72.14440000
C      -43.15300000     -36.22410000     -69.04820000
H      -42.51530000     -36.87530000     -69.56340000
H      -42.85680000     -36.48790000     -68.01600000
S      -42.47640000     -33.27970000     -73.55650000
S      -44.84660000     -36.77500000     -69.42340000
C      -44.01520000     -32.34420000     -72.98160000
H      -44.20230000     -32.68290000     -72.00130000
H      -43.79320000     -31.25650000     -73.07710000
C      -46.05480000     -35.33260000     -69.57790000
H      -45.64480000     -34.47670000     -69.01750000
H      -46.94260000     -35.76160000     -69.16770000
C      -46.25560000     -34.87600000     -71.01820000
H      -45.29540000     -34.52770000     -71.38810000
H      -46.48020000     -35.65500000     -71.73010000
C      -45.22940000     -32.86380000     -73.81370000
H      -45.32960000     -33.92360000     -73.59850000
H      -45.03150000     -32.77550000     -74.90660000
C      -46.52540000     -32.33490000     -73.32580000
C      -47.15900000     -31.27700000     -74.03280000
C      -47.37440000     -32.80670000     -72.25830000
H      -46.68830000     -30.86360000     -74.96330000
C      -48.56800000     -32.08660000     -72.17070000
C      -47.29860000     -33.75830000     -71.16120000
C      -48.38100000     -33.71480000     -70.32610000
S      -48.71520000     -30.74880000     -73.34290000
S      -49.53980000     -32.41660000     -70.75130000
H      -48.69520000     -34.22190000     -69.45060000
