40
Properties=species:S:1:pos:R:3 #=T CELL(abcABC):=T 1.889726e+02=T 90.00000=T Traj:=T positionsangstrom=T Step:=T 0=T Bead:=T pbc="F F F"
C      -42.94020000     -31.78580000     -74.50070000
C      -43.59170000     -33.03210000     -74.25030000
C      -43.14610000     -33.72920000     -73.11720000
C      -42.09740000     -33.31270000     -72.30800000
C      -41.47910000     -32.05880000     -72.59780000
C      -41.91910000     -31.33220000     -73.72980000
H      -43.33140000     -31.16880000     -75.33110000
H      -43.49780000     -34.70420000     -72.87150000
H      -40.56110000     -31.84840000     -72.12290000
H      -41.42230000     -30.39860000     -74.03790000
C      -41.75040000     -33.97390000     -71.04370000
H      -40.79700000     -33.54690000     -70.67600000
H      -41.67310000     -35.12280000     -71.15390000
C      -44.58840000     -33.57640000     -75.24240000
H      -44.06880000     -33.26070000     -76.23250000
H      -44.73830000     -34.65660000     -75.09260000
S      -42.89350000     -33.79560000     -69.55150000
S      -46.23390000     -32.80740000     -75.22310000
C      -43.45090000     -32.04780000     -69.47590000
H      -43.30530000     -31.67090000     -68.48140000
H      -42.84190000     -31.39080000     -70.19680000
C      -47.08480000     -33.54570000     -73.78920000
H      -47.03180000     -34.60710000     -73.95080000
H      -48.15980000     -33.36540000     -73.97000000
C      -46.78960000     -32.99670000     -72.44470000
H      -45.69310000     -33.21890000     -72.15200000
H      -46.93530000     -31.87690000     -72.46080000
C      -44.93590000     -31.89400000     -69.94470000
H      -44.79420000     -32.08260000     -70.99170000
H      -45.15960000     -30.76220000     -69.87000000
C      -45.88960000     -32.82150000     -69.22620000
C      -45.75440000     -33.17620000     -67.88800000
C      -46.99160000     -33.49400000     -69.85870000
H      -45.02830000     -32.92300000     -67.27040000
C      -47.78360000     -34.22370000     -68.92970000
C      -47.48740000     -33.57470000     -71.24240000
C      -48.48960000     -34.51240000     -71.34140000
S      -47.08200000     -34.25210000     -67.35000000
S      -49.07420000     -35.13400000     -69.75040000
H      -49.01000000     -34.82960000     -72.20920000
