40
Properties=species:S:1:pos:R:3 #=T CELL(abcABC):=T 1.889726e+02=T 90.00000=T Traj:=T positionsangstrom=T Step:=T 0=T Bead:=T pbc="F F F"
C      -42.96220000     -33.71010000     -68.12430000
C      -42.91240000     -34.85400000     -68.97840000
C      -42.37870000     -34.66530000     -70.25450000
C      -41.90520000     -33.43710000     -70.70030000
C      -42.02780000     -32.27680000     -69.83230000
C      -42.49710000     -32.45860000     -68.51630000
H      -43.31570000     -33.88500000     -67.12480000
H      -42.29840000     -35.54180000     -70.88590000
H      -41.60040000     -31.36270000     -70.14340000
H      -42.52220000     -31.64210000     -67.83150000
C      -41.35730000     -33.16280000     -72.04650000
H      -40.53680000     -33.82450000     -72.18880000
H      -41.01250000     -32.17050000     -72.13500000
C      -43.58920000     -36.15770000     -68.63070000
H      -42.82250000     -36.93280000     -68.32980000
H      -44.33120000     -35.92630000     -67.77550000
S      -42.59590000     -33.50730000     -73.36740000
S      -44.70800000     -36.82910000     -69.99860000
C      -44.07640000     -32.53910000     -72.88600000
H      -44.19670000     -32.75980000     -71.89990000
H      -43.90820000     -31.40710000     -72.92650000
C      -46.23570000     -35.73930000     -69.99410000
H      -46.27500000     -35.27880000     -68.97010000
H      -47.04280000     -36.42250000     -70.10210000
C      -46.21310000     -34.73570000     -71.16360000
H      -45.22090000     -34.27840000     -71.21830000
H      -46.15260000     -35.29780000     -72.07850000
C      -45.22660000     -32.99080000     -73.76340000
H      -45.32890000     -34.03150000     -73.61810000
H      -45.04250000     -32.84620000     -74.85090000
C      -46.49120000     -32.21920000     -73.42420000
C      -47.09800000     -31.15120000     -74.05130000
C      -47.32990000     -32.61380000     -72.25510000
H      -46.80710000     -30.57850000     -74.97670000
C      -48.39180000     -31.74860000     -72.05630000
C      -47.34960000     -33.64460000     -71.21860000
C      -48.35680000     -33.49750000     -70.32580000
S      -48.51090000     -30.51680000     -73.26730000
S      -49.42070000     -32.16430000     -70.71160000
H      -48.43590000     -34.15680000     -69.44480000
