40
Properties=species:S:1:pos:R:3 #=T CELL(abcABC):=T 1.889726e+02=T 90.00000=T Traj:=T positionsangstrom=T Step:=T 0=T Bead:=T pbc="F F F"
C      -44.09040000     -34.71330000     -68.34840000
C      -43.56520000     -35.70390000     -69.19980000
C      -42.67190000     -35.45340000     -70.25030000
C      -42.19100000     -34.10770000     -70.40240000
C      -42.72390000     -33.14350000     -69.49750000
C      -43.55490000     -33.43810000     -68.43570000
H      -44.54210000     -34.99810000     -67.46380000
H      -42.28310000     -36.23220000     -70.87580000
H      -42.50300000     -32.07240000     -69.64110000
H      -44.05300000     -32.65250000     -67.82950000
C      -41.24370000     -33.75780000     -71.49450000
H      -40.55410000     -34.48360000     -71.83160000
H      -40.63810000     -32.91290000     -71.18220000
C      -44.26070000     -36.99170000     -69.02590000
H      -43.67690000     -37.90930000     -69.34640000
H      -44.57010000     -37.10030000     -67.96620000
S      -42.07160000     -33.29120000     -73.13760000
S      -45.75020000     -37.06530000     -70.15950000
C      -43.51080000     -32.30020000     -72.65220000
H      -43.71170000     -32.46120000     -71.62450000
H      -43.19220000     -31.21570000     -72.73310000
C      -46.65420000     -35.40970000     -70.05360000
H      -46.24360000     -34.73280000     -69.23900000
H      -47.72390000     -35.54920000     -69.83950000
C      -46.49000000     -34.67010000     -71.42890000
H      -45.47960000     -34.51830000     -71.63100000
H      -46.70240000     -35.39080000     -72.27420000
C      -44.72670000     -32.67560000     -73.64800000
H      -44.86360000     -33.80670000     -73.72670000
H      -44.48740000     -32.36390000     -74.66330000
C      -45.94980000     -31.95040000     -73.33360000
C      -46.16690000     -30.67320000     -73.84150000
C      -47.03890000     -32.24090000     -72.32650000
H      -45.53660000     -30.20880000     -74.65160000
C      -47.94280000     -31.21000000     -72.16880000
C      -47.31120000     -33.38500000     -71.44570000
C      -48.38250000     -33.07440000     -70.63250000
S      -47.45820000     -29.77310000     -73.08280000
S      -49.09540000     -31.53030000     -70.98510000
H      -48.70360000     -33.63920000     -69.76640000
