40
Properties=species:S:1:pos:R:3 #=T CELL(abcABC):=T 1.889726e+02=T 90.00000=T Traj:=T positionsangstrom=T Step:=T 0=T Bead:=T pbc="F F F"
C      -43.55430000     -33.72780000     -68.20310000
C      -43.48470000     -34.83610000     -69.12220000
C      -42.65990000     -34.67850000     -70.21600000
C      -42.02510000     -33.42520000     -70.58230000
C      -41.97580000     -32.46580000     -69.61010000
C      -42.71540000     -32.61050000     -68.40220000
H      -44.26990000     -33.85080000     -67.42180000
H      -42.56140000     -35.45470000     -71.00950000
H      -41.47670000     -31.48640000     -69.82110000
H      -42.60290000     -31.88920000     -67.53120000
C      -41.36510000     -33.35970000     -71.87820000
H      -40.57430000     -34.04710000     -72.07790000
H      -40.86650000     -32.43640000     -71.96300000
C      -44.21250000     -36.10210000     -68.73240000
H      -43.56730000     -36.91060000     -68.23860000
H      -44.86090000     -35.82510000     -67.82640000
S      -42.40320000     -33.68240000     -73.34240000
S      -45.08180000     -37.00700000     -70.07510000
C      -43.76650000     -32.36730000     -73.12450000
H      -44.11340000     -32.37100000     -72.02260000
H      -43.41210000     -31.39940000     -73.41780000
C      -46.54150000     -35.90790000     -70.36830000
H      -46.91650000     -35.74940000     -69.34160000
H      -47.36280000     -36.46950000     -70.90100000
C      -45.99960000     -34.68250000     -71.09720000
H      -45.10380000     -34.27350000     -70.57840000
H      -45.71250000     -35.06080000     -72.14500000
C      -45.06080000     -32.77770000     -73.90880000
H      -45.18270000     -33.84650000     -73.73430000
H      -44.88570000     -32.54000000     -74.96000000
C      -46.37620000     -32.09800000     -73.40120000
C      -46.97030000     -30.99830000     -74.01280000
C      -47.13160000     -32.52330000     -72.23590000
H      -46.48940000     -30.51300000     -74.86230000
C      -48.27370000     -31.67700000     -72.07730000
C      -47.03640000     -33.54710000     -71.19060000
C      -47.93450000     -33.34710000     -70.24140000
S      -48.39680000     -30.45070000     -73.25740000
S      -49.05610000     -32.06210000     -70.57670000
H      -48.19420000     -33.94300000     -69.43800000
