40
Properties=species:S:1:pos:R:3 #=T CELL(abcABC):=T 1.889726e+02=T 90.00000=T Traj:=T positionsangstrom=T Step:=T 0=T Bead:=T pbc="F F F"
C      -43.37120000     -33.70840000     -68.26480000
C      -43.35040000     -34.74340000     -69.14930000
C      -42.62800000     -34.57660000     -70.35680000
C      -42.02610000     -33.36970000     -70.64840000
C      -41.87210000     -32.38400000     -69.65730000
C      -42.56780000     -32.56820000     -68.46590000
H      -43.95510000     -33.79730000     -67.38940000
H      -42.63660000     -35.39010000     -71.04880000
H      -41.30120000     -31.51500000     -69.96200000
H      -42.53080000     -31.79200000     -67.71340000
C      -41.34030000     -33.28080000     -72.00800000
H      -40.69530000     -34.21110000     -72.11760000
H      -40.77670000     -32.27910000     -72.09740000
C      -43.93100000     -36.13600000     -68.72610000
H      -43.14570000     -36.81030000     -68.59640000
H      -44.47570000     -35.99400000     -67.85360000
S      -42.58080000     -33.61680000     -73.29870000
S      -44.86610000     -36.91740000     -70.04230000
C      -43.92980000     -32.40730000     -72.97910000
H      -44.13740000     -32.39990000     -71.91090000
H      -43.65060000     -31.36680000     -73.21450000
C      -46.26120000     -35.75820000     -70.17560000
H      -46.33800000     -35.23450000     -69.27570000
H      -47.29640000     -36.17250000     -70.37150000
C      -46.07810000     -34.68290000     -71.22380000
H      -45.06190000     -34.23710000     -71.16830000
H      -46.25180000     -35.08780000     -72.18470000
C      -45.13160000     -32.77760000     -73.83040000
H      -45.22030000     -33.87990000     -74.07530000
H      -44.89830000     -32.37290000     -74.80260000
C      -46.41050000     -32.18040000     -73.35470000
C      -46.95500000     -31.12990000     -74.05320000
C      -47.13990000     -32.56210000     -72.16510000
H      -46.52250000     -30.78970000     -75.06570000
C      -48.23530000     -31.69440000     -71.97630000
C      -47.18050000     -33.58410000     -71.18270000
C      -48.16470000     -33.53040000     -70.27970000
S      -48.47560000     -30.56450000     -73.27320000
S      -49.23990000     -32.14530000     -70.57340000
H      -48.19710000     -34.10020000     -69.37260000
