40
Properties=species:S:1:pos:R:3 #=T CELL(abcABC):=T 1.889726e+02=T 90.00000=T Traj:=T positionsangstrom=T Step:=T 0=T Bead:=T pbc="F F F"
C      -43.86400000     -34.89650000     -68.12430000
C      -43.75150000     -35.79430000     -69.22450000
C      -42.91140000     -35.46030000     -70.30070000
C      -42.38170000     -34.14340000     -70.37780000
C      -42.78030000     -33.19680000     -69.41710000
C      -43.50040000     -33.60800000     -68.27120000
H      -44.62040000     -35.20400000     -67.34650000
H      -42.73450000     -36.12690000     -71.04230000
H      -42.41870000     -32.16570000     -69.40400000
H      -43.74850000     -32.86080000     -67.51630000
C      -41.31930000     -33.90420000     -71.49790000
H      -40.76300000     -34.80550000     -71.85830000
H      -40.50770000     -33.23300000     -71.04500000
C      -44.36420000     -37.11730000     -69.21170000
H      -43.79300000     -37.89380000     -69.63360000
H      -44.58500000     -37.35970000     -68.18930000
S      -41.90950000     -33.18240000     -73.16070000
S      -46.02230000     -37.17020000     -70.16140000
C      -43.50140000     -32.22220000     -72.70860000
H      -43.84410000     -32.43360000     -71.69590000
H      -43.35330000     -31.13470000     -72.73400000
C      -46.60570000     -35.44710000     -70.12440000
H      -46.21750000     -35.06710000     -69.23190000
H      -47.66270000     -35.53560000     -69.92260000
C      -46.28750000     -34.56670000     -71.38340000
H      -45.21800000     -34.16660000     -71.21650000
H      -46.40250000     -35.12960000     -72.27530000
C      -44.71330000     -32.60130000     -73.64280000
H      -44.98680000     -33.67150000     -73.60630000
H      -44.46690000     -32.42950000     -74.67680000
C      -45.88490000     -31.76720000     -73.23120000
C      -46.05150000     -30.46530000     -73.74940000
C      -46.90040000     -32.15930000     -72.30530000
H      -45.39650000     -30.10760000     -74.54500000
C      -47.78690000     -31.10410000     -72.10560000
C      -47.19100000     -33.31540000     -71.55550000
C      -48.29900000     -33.17990000     -70.78450000
S      -47.50960000     -29.68380000     -73.11510000
S      -49.07480000     -31.57610000     -70.99730000
H      -48.81030000     -33.82740000     -70.16090000
