40
Properties=species:S:1:pos:R:3 #=T CELL(abcABC):=T 1.889726e+02=T 90.00000=T Traj:=T positionsangstrom=T Step:=T 0=T Bead:=T pbc="F F F"
C      -44.01660000     -35.58500000     -68.51310000
C      -43.79840000     -36.19950000     -69.76480000
C      -42.89830000     -35.61740000     -70.67590000
C      -42.20110000     -34.47320000     -70.30800000
C      -42.36890000     -33.79660000     -69.05720000
C      -43.32880000     -34.35510000     -68.15830000
H      -44.59940000     -35.94380000     -67.78250000
H      -42.59040000     -36.08660000     -71.70670000
H      -41.89340000     -32.83770000     -68.92690000
H      -43.52540000     -33.86650000     -67.16270000
C      -41.25900000     -33.88730000     -71.27530000
H      -40.54350000     -34.62010000     -71.58520000
H      -40.82510000     -33.02060000     -70.73590000
C      -44.62530000     -37.37930000     -70.04010000
H      -44.05070000     -38.16950000     -70.45330000
H      -45.20490000     -37.65840000     -69.17270000
S      -42.09910000     -33.46400000     -72.86600000
S      -45.82320000     -36.79510000     -71.45310000
C      -43.61400000     -32.60500000     -72.34180000
H      -43.88700000     -32.98140000     -71.38160000
H      -43.33820000     -31.53170000     -72.24980000
C      -47.05910000     -35.54170000     -70.74090000
H      -47.29740000     -35.84410000     -69.69680000
H      -47.88920000     -35.69910000     -71.38150000
C      -46.43450000     -34.12140000     -70.78630000
H      -45.72010000     -33.90940000     -69.90820000
H      -45.76080000     -34.13240000     -71.60440000
C      -44.72460000     -32.73870000     -73.37290000
H      -45.04110000     -33.75560000     -73.47430000
H      -44.40030000     -32.49210000     -74.40120000
C      -45.92800000     -31.77130000     -72.95110000
C      -46.00500000     -30.53890000     -73.56480000
C      -47.02220000     -31.93330000     -72.02240000
H      -45.20790000     -30.15570000     -74.24610000
C      -47.92670000     -30.83890000     -71.98880000
C      -47.31240000     -32.91890000     -71.03100000
C      -48.28990000     -32.57240000     -70.18130000
S      -47.38160000     -29.54200000     -73.00510000
S      -48.90860000     -31.00230000     -70.60170000
H      -48.85600000     -33.25910000     -69.39610000
