40
Properties=species:S:1:pos:R:3 #=T CELL(abcABC):=T 1.889726e+02=T 90.00000=T Traj:=T positionsangstrom=T Step:=T 0=T Bead:=T pbc="F F F"
C      -43.98580000     -35.29750000     -68.48880000
C      -43.75400000     -36.01590000     -69.69240000
C      -42.72790000     -35.61660000     -70.56080000
C      -42.05630000     -34.43050000     -70.22070000
C      -42.32620000     -33.64340000     -69.09220000
C      -43.24120000     -34.16010000     -68.15130000
H      -44.75270000     -35.69030000     -67.85620000
H      -42.46760000     -36.00090000     -71.58140000
H      -41.77910000     -32.75340000     -68.92020000
H      -43.45590000     -33.75650000     -67.15520000
C      -41.15520000     -33.84390000     -71.32790000
H      -40.26700000     -34.50760000     -71.56880000
H      -40.69490000     -32.91600000     -70.94350000
C      -44.60870000     -37.23190000     -69.99210000
H      -44.05880000     -38.13450000     -70.44030000
H      -45.12670000     -37.58950000     -69.06490000
S      -42.15800000     -33.39720000     -72.88930000
S      -45.96590000     -37.01070000     -71.26710000
C      -43.64980000     -32.64580000     -72.27510000
H      -44.01640000     -33.13750000     -71.38840000
H      -43.49850000     -31.62150000     -71.84040000
C      -47.03320000     -35.56170000     -70.60330000
H      -47.32220000     -35.70720000     -69.52030000
H      -48.02230000     -35.67700000     -71.13150000
C      -46.35960000     -34.16960000     -70.80210000
H      -45.73020000     -34.11670000     -69.92000000
H      -45.80120000     -34.31150000     -71.74260000
C      -44.67010000     -32.58510000     -73.39700000
H      -45.12540000     -33.55720000     -73.53530000
H      -44.20870000     -32.23670000     -74.34970000
C      -45.80650000     -31.66570000     -72.96940000
C      -46.14610000     -30.58950000     -73.72300000
C      -46.76710000     -31.89950000     -71.90780000
H      -45.62530000     -30.38440000     -74.65810000
C      -47.73750000     -30.89250000     -71.92010000
C      -47.17340000     -32.96090000     -70.96150000
C      -48.27590000     -32.65160000     -70.28290000
S      -47.55290000     -29.68840000     -73.18630000
S      -49.03790000     -31.10750000     -70.74460000
H      -48.64900000     -33.19270000     -69.34680000
