40
Properties=species:S:1:pos:R:3 #=T CELL(abcABC):=T 1.889726e+02=T 90.00000=T Traj:=T positionsangstrom=T Step:=T 0=T Bead:=T pbc="F F F"
C      -47.63480000     -34.18480000     -68.65560000
C      -48.24470000     -34.75470000     -69.78570000
C      -48.59280000     -33.84100000     -70.78260000
C      -48.28180000     -32.49910000     -70.68780000
C      -47.75960000     -31.95190000     -69.46060000
C      -47.37930000     -32.88250000     -68.44760000
H      -47.34420000     -34.95850000     -67.95570000
H      -49.08060000     -34.08410000     -71.78650000
H      -47.38210000     -30.94920000     -69.39670000
H      -46.80480000     -32.59850000     -67.53710000
C      -48.81370000     -31.48390000     -71.65390000
H      -48.80710000     -30.49300000     -71.22710000
H      -49.82090000     -31.88760000     -71.94830000
C      -48.32950000     -36.24480000     -69.86580000
H      -48.19890000     -36.59320000     -68.81190000
H      -49.25700000     -36.64340000     -70.31130000
S      -47.78580000     -31.59960000     -73.29670000
S      -46.84640000     -36.96290000     -70.85460000
C      -46.06480000     -31.40200000     -72.53420000
H      -45.82820000     -30.33730000     -72.40070000
H      -46.13170000     -31.89770000     -71.56110000
C      -45.39510000     -35.91780000     -70.43350000
H      -44.50120000     -36.59810000     -70.27790000
H      -45.63170000     -35.37780000     -69.48390000
C      -44.97890000     -35.05240000     -71.66410000
H      -44.75330000     -35.65450000     -72.55800000
H      -45.76430000     -34.35050000     -71.88680000
C      -45.06050000     -32.04890000     -73.52910000
H      -44.97750000     -31.32560000     -74.43310000
H      -45.41050000     -32.99360000     -73.90160000
C      -43.70020000     -32.04120000     -72.91910000
C      -42.66480000     -31.22020000     -73.37120000
C      -43.25710000     -32.99570000     -71.92920000
H      -42.79410000     -30.33590000     -73.99930000
C      -41.98790000     -32.68650000     -71.49800000
C      -43.69550000     -34.21890000     -71.36920000
C      -42.72850000     -34.78720000     -70.58280000
S      -41.20840000     -31.36380000     -72.41370000
S      -41.37820000     -33.78760000     -70.32970000
H      -42.87570000     -35.66210000     -70.04060000
