40
Properties=species:S:1:pos:R:3 #=T CELL(abcABC):=T 1.889726e+02=T 90.00000=T Traj:=T positionsangstrom=T Step:=T 0=T Bead:=T pbc="F F F"
C      -42.86370000     -32.38670000     -70.19180000
C      -43.50160000     -31.53770000     -71.06930000
C      -44.87990000     -31.27150000     -70.93600000
C      -45.64110000     -31.88650000     -69.92960000
C      -44.88640000     -32.68830000     -69.00720000
C      -43.56720000     -33.04790000     -69.14300000
H      -41.73690000     -32.72780000     -70.28750000
H      -45.28290000     -30.72850000     -71.81480000
H      -45.51020000     -33.26540000     -68.29890000
H      -43.17480000     -33.87680000     -68.54770000
C      -47.02350000     -31.51260000     -69.49710000
H      -47.07620000     -30.61470000     -68.82600000
H      -47.65160000     -32.35100000     -69.09470000
C      -42.63420000     -30.86980000     -72.18040000
H      -42.78520000     -29.78370000     -72.16630000
H      -41.55680000     -31.05290000     -72.01240000
S      -48.11640000     -30.79260000     -70.88320000
S      -43.11200000     -31.44000000     -73.87070000
C      -48.44470000     -32.09770000     -72.11390000
H      -49.29730000     -32.73490000     -71.77840000
H      -48.77060000     -31.56660000     -73.06700000
C      -42.89830000     -33.29720000     -73.73870000
H      -42.25770000     -33.47350000     -72.88850000
H      -42.50130000     -33.66210000     -74.76000000
C      -44.27640000     -33.89160000     -73.58760000
H      -44.91330000     -33.04290000     -73.64950000
H      -44.47470000     -34.53350000     -74.48380000
C      -47.24110000     -32.98010000     -72.47760000
H      -46.36650000     -32.33360000     -72.56550000
H      -47.43940000     -33.38270000     -73.48400000
C      -47.03300000     -34.10600000     -71.51870000
C      -47.83880000     -34.72790000     -70.63940000
C      -45.71610000     -34.88420000     -71.58080000
H      -48.86440000     -34.42790000     -70.46050000
C      -45.69410000     -35.97760000     -70.73340000
C      -44.52360000     -34.80760000     -72.36070000
C      -43.58090000     -35.71420000     -71.95340000
S      -47.18900000     -36.14960000     -69.80010000
S      -44.14300000     -36.70100000     -70.68420000
H      -42.63570000     -35.74040000     -72.46380000
