40
Properties=species:S:1:pos:R:3 #=T CELL(abcABC):=T 1.889726e+02=T 90.00000=T Traj:=T positionsangstrom=T Step:=T 0=T Bead:=T pbc="F F F"
C      -44.32040000     -36.14860000     -68.47280000
C      -44.35130000     -36.35570000     -69.91370000
C      -43.47650000     -35.66270000     -70.78940000
C      -42.53670000     -34.71250000     -70.23230000
C      -42.46280000     -34.53590000     -68.81840000
C      -43.35440000     -35.25440000     -67.99300000
H      -45.00800000     -36.59200000     -67.74290000
H      -43.43320000     -35.83750000     -71.84840000
H      -41.67290000     -33.92920000     -68.29060000
H      -43.35350000     -35.00120000     -66.90890000
C      -41.50320000     -34.04520000     -71.13270000
H      -40.75740000     -34.77400000     -71.44770000
H      -41.19580000     -33.12240000     -70.64810000
C      -45.41880000     -37.19970000     -70.50430000
H      -45.22790000     -38.27260000     -70.44650000
H      -46.36900000     -37.07200000     -70.02470000
S      -42.23740000     -33.54270000     -72.77190000
S      -45.81700000     -36.88870000     -72.26260000
C      -43.45520000     -32.24980000     -72.19680000
H      -43.75410000     -32.54410000     -71.17950000
H      -43.02040000     -31.24760000     -72.25380000
C      -46.85480000     -35.27670000     -72.14230000
H      -47.85830000     -35.60450000     -72.12880000
H      -46.66350000     -34.81530000     -73.08300000
C      -46.58130000     -34.28470000     -71.06000000
H      -46.93180000     -34.80370000     -70.09360000
H      -45.54840000     -34.03420000     -70.99090000
C      -44.58150000     -32.49600000     -73.19320000
H      -44.91540000     -33.52440000     -73.15850000
H      -44.24090000     -32.10010000     -74.12270000
C      -45.72270000     -31.47380000     -72.78170000
C      -45.67490000     -30.17690000     -73.14020000
C      -46.72550000     -31.79010000     -71.79900000
H      -44.95660000     -29.87350000     -73.93640000
C      -47.47240000     -30.60780000     -71.51590000
C      -47.23260000     -32.96340000     -71.06180000
C      -48.30540000     -32.58430000     -70.24490000
S      -46.91160000     -29.16890000     -72.34480000
S      -48.69210000     -30.83920000     -70.38360000
H      -48.85140000     -33.13630000     -69.54440000
