40
Properties=species:S:1:pos:R:3 #=T CELL(abcABC):=T 1.889726e+02=T 90.00000=T Traj:=T positionsangstrom=T Step:=T 0=T Bead:=T pbc="F F F"
C      -42.94730000     -33.57710000     -70.13070000
C      -42.78600000     -32.42260000     -70.87680000
C      -43.75270000     -31.44310000     -70.76710000
C      -44.84230000     -31.55760000     -69.88140000
C      -44.93690000     -32.72160000     -69.07050000
C      -43.97810000     -33.72050000     -69.17810000
H      -42.15190000     -34.28820000     -69.99200000
H      -43.75100000     -30.59910000     -71.48540000
H      -45.59740000     -32.81210000     -68.20520000
H      -43.99030000     -34.60800000     -68.51880000
C      -45.89620000     -30.48630000     -69.69440000
H      -45.31940000     -29.52360000     -69.51570000
H      -46.47760000     -30.64200000     -68.81830000
C      -41.67900000     -32.32560000     -71.93830000
H      -41.04660000     -31.40730000     -71.83360000
H      -40.98570000     -33.16430000     -71.86820000
S      -46.96720000     -30.15000000     -71.17350000
S      -42.33640000     -31.94900000     -73.71510000
C      -48.16530000     -31.54340000     -71.06730000
H      -48.06410000     -31.86020000     -70.00250000
H      -49.15080000     -31.13940000     -71.19110000
C      -43.60320000     -33.29810000     -74.09320000
H      -43.10920000     -34.24100000     -74.12390000
H      -43.76250000     -33.01890000     -75.17400000
C      -44.99590000     -33.40190000     -73.40730000
H      -45.05310000     -32.52340000     -72.79770000
H      -45.85110000     -33.33400000     -74.06820000
C      -48.08130000     -32.63670000     -72.20490000
H      -47.38960000     -32.37920000     -73.03090000
H      -49.01150000     -32.80610000     -72.72360000
C      -47.61490000     -33.98910000     -71.54540000
C      -48.44540000     -34.61290000     -70.65430000
C      -46.32870000     -34.62840000     -71.64860000
H      -49.45930000     -34.31050000     -70.48290000
C      -46.23040000     -35.75440000     -70.78500000
C      -45.17740000     -34.59380000     -72.49390000
C      -44.44930000     -35.72170000     -72.34850000
S      -47.68860000     -35.94440000     -69.74070000
S      -44.90200000     -36.78420000     -71.06240000
H      -43.46630000     -35.84450000     -72.79110000
