40
Properties=species:S:1:pos:R:3 #=T CELL(abcABC):=T 1.889726e+02=T 90.00000=T Traj:=T positionsangstrom=T Step:=T 0=T Bead:=T pbc="F F F"
C      -46.34370000     -35.38990000     -68.43410000
C      -46.08260000     -34.08470000     -68.90940000
C      -46.74260000     -33.60600000     -70.02240000
C      -47.62970000     -34.40270000     -70.80800000
C      -47.81310000     -35.72930000     -70.28190000
C      -47.17740000     -36.24470000     -69.16920000
H      -45.74410000     -35.66220000     -67.51890000
H      -46.36430000     -32.64710000     -70.39630000
H      -48.41680000     -36.47490000     -70.78310000
H      -47.33970000     -37.31850000     -68.80280000
C      -48.05770000     -33.89410000     -72.14700000
H      -47.62880000     -32.93530000     -72.32370000
H      -49.14180000     -33.76720000     -72.35590000
C      -45.12430000     -33.19980000     -68.13540000
H      -45.00200000     -32.22070000     -68.69290000
H      -45.29360000     -32.92590000     -67.07790000
S      -47.46060000     -34.98890000     -73.59420000
S      -43.48460000     -34.07380000     -68.28890000
C      -45.66180000     -35.46710000     -73.18340000
H      -45.57950000     -35.34040000     -72.09870000
H      -45.55400000     -36.47270000     -73.46430000
C      -43.40670000     -34.75420000     -70.01250000
H      -44.45270000     -34.75030000     -70.29060000
H      -43.07470000     -35.85640000     -70.00850000
C      -42.53570000     -33.99640000     -71.18230000
H      -41.51960000     -33.91480000     -70.87840000
H      -42.46600000     -34.57700000     -72.09040000
C      -44.65270000     -34.54520000     -73.83870000
H      -44.71880000     -34.58460000     -75.02590000
H      -43.62070000     -34.84540000     -73.56070000
C      -44.88700000     -33.07420000     -73.56300000
C      -45.76050000     -32.27890000     -74.20180000
C      -44.21450000     -32.46330000     -72.40980000
H      -46.40440000     -32.69240000     -75.00870000
C      -44.63000000     -31.16130000     -72.33480000
C      -43.16200000     -32.67720000     -71.39900000
C      -42.97170000     -31.63710000     -70.49900000
S      -45.87850000     -30.68770000     -73.47160000
S      -43.94090000     -30.32320000     -71.00930000
H      -42.18280000     -31.55430000     -69.80130000
