40
Properties=species:S:1:pos:R:3 #=T CELL(abcABC):=T 1.889726e+02=T 90.00000=T Traj:=T positionsangstrom=T Step:=T 0=T Bead:=T pbc="F F F"
C      -46.75480000     -35.45460000     -68.55510000
C      -46.27760000     -34.24690000     -69.10990000
C      -46.71890000     -33.80660000     -70.38100000
C      -47.63240000     -34.56010000     -71.02870000
C      -48.14320000     -35.75370000     -70.51160000
C      -47.62390000     -36.22240000     -69.32360000
H      -46.53660000     -35.69320000     -67.53640000
H      -46.37050000     -32.86170000     -70.77130000
H      -48.94380000     -36.15990000     -71.15170000
H      -48.01410000     -37.11990000     -68.81930000
C      -48.14900000     -34.09660000     -72.35090000
H      -47.96620000     -33.06140000     -72.58030000
H      -49.18450000     -34.24510000     -72.42220000
C      -45.36750000     -33.31640000     -68.34340000
H      -45.22590000     -32.43000000     -68.94810000
H      -45.85990000     -32.97740000     -67.49570000
S      -47.41640000     -35.11290000     -73.68900000
S      -43.70350000     -33.97210000     -67.96300000
C      -45.60670000     -35.40290000     -73.18080000
H      -45.34580000     -35.33740000     -72.05380000
H      -45.39980000     -36.43580000     -73.50520000
C      -43.29170000     -34.98350000     -69.45310000
H      -44.05950000     -35.79150000     -69.53120000
H      -42.28810000     -35.40190000     -69.17190000
C      -43.08410000     -34.21310000     -70.85280000
H      -42.01870000     -34.30960000     -71.05370000
H      -43.52820000     -34.77790000     -71.63940000
C      -44.64230000     -34.40250000     -73.98420000
H      -44.97620000     -34.46140000     -75.01930000
H      -43.69510000     -34.98540000     -73.87690000
C      -44.68650000     -32.99450000     -73.48270000
C      -45.33000000     -32.07000000     -74.26470000
C      -44.21860000     -32.38750000     -72.29830000
H      -45.80550000     -32.36600000     -75.16760000
C      -44.45200000     -31.04340000     -72.20670000
C      -43.50910000     -32.80580000     -71.15690000
C      -43.03670000     -31.72940000     -70.40580000
S      -45.28740000     -30.44030000     -73.60000000
S      -43.63270000     -30.16750000     -70.97420000
H      -42.41990000     -31.70670000     -69.54540000
