40
Properties=species:S:1:pos:R:3 #=T CELL(abcABC):=T 1.889726e+02=T 90.00000=T Traj:=T positionsangstrom=T Step:=T 0=T Bead:=T pbc="F F F"
C      -46.46250000     -35.42450000     -68.56420000
C      -46.13520000     -34.11310000     -69.04990000
C      -46.78310000     -33.69120000     -70.21700000
C      -47.60440000     -34.56800000     -70.99480000
C      -47.93030000     -35.80610000     -70.47960000
C      -47.35110000     -36.26760000     -69.24050000
H      -45.84410000     -35.69090000     -67.72170000
H      -46.46790000     -32.75030000     -70.59310000
H      -48.58770000     -36.56210000     -70.92440000
H      -47.48250000     -37.24920000     -68.85050000
C      -48.20200000     -34.16370000     -72.38740000
H      -47.91440000     -33.09840000     -72.68330000
H      -49.29640000     -34.22510000     -72.45120000
C      -45.21410000     -33.22920000     -68.32410000
H      -45.27500000     -32.12630000     -68.57920000
H      -45.57140000     -33.20130000     -67.24690000
S      -47.50830000     -35.12020000     -73.81690000
S      -43.54940000     -33.94690000     -68.04830000
C      -45.80310000     -35.43600000     -73.27030000
H      -45.75120000     -35.53800000     -72.23370000
H      -45.54020000     -36.41170000     -73.65970000
C      -43.24520000     -34.88410000     -69.57060000
H      -44.05880000     -35.55530000     -69.75110000
H      -42.39660000     -35.50460000     -69.33500000
C      -42.89640000     -34.19060000     -70.80590000
H      -41.82630000     -33.87750000     -70.73670000
H      -42.94490000     -34.95860000     -71.53090000
C      -44.80420000     -34.44930000     -73.84950000
H      -44.73120000     -34.43880000     -74.89000000
H      -43.71400000     -34.76800000     -73.55130000
C      -45.02570000     -32.99950000     -73.35440000
C      -45.52930000     -32.07260000     -74.23820000
C      -44.27170000     -32.35510000     -72.28790000
H      -45.96960000     -32.38330000     -75.18460000
C      -44.32810000     -30.94990000     -72.35280000
C      -43.53960000     -32.91300000     -71.13450000
C      -43.11770000     -31.79380000     -70.38440000
S      -45.35930000     -30.42520000     -73.66740000
S      -43.77970000     -30.26840000     -70.86460000
H      -42.63190000     -31.80220000     -69.50840000
