40
Properties=species:S:1:pos:R:3 #=T CELL(abcABC):=T 1.889726e+02=T 90.00000=T Traj:=T positionsangstrom=T Step:=T 0=T Bead:=T pbc="F F F"
C      -47.27570000     -33.97410000     -68.50670000
C      -47.92380000     -34.58300000     -69.55760000
C      -48.44000000     -33.84650000     -70.62360000
C      -48.32890000     -32.43010000     -70.67380000
C      -47.64180000     -31.82940000     -69.58630000
C      -47.00710000     -32.57890000     -68.59340000
H      -46.83310000     -34.53560000     -67.69790000
H      -48.85520000     -34.29960000     -71.42880000
H      -47.31230000     -30.78660000     -69.79180000
H      -46.43960000     -32.12120000     -67.86110000
C      -48.84420000     -31.63380000     -71.77660000
H      -48.72010000     -30.52160000     -71.58770000
H      -49.86790000     -31.89890000     -72.05040000
C      -48.11100000     -36.06700000     -69.63940000
H      -47.87530000     -36.51060000     -68.70780000
H      -49.13270000     -36.35330000     -69.83970000
S      -48.00120000     -31.88030000     -73.41420000
S      -46.98010000     -36.89180000     -70.93410000
C      -46.23360000     -31.54780000     -72.82810000
H      -46.03420000     -30.48660000     -72.97740000
H      -46.09260000     -31.80030000     -71.76320000
C      -45.36080000     -36.14940000     -70.58780000
H      -44.64110000     -36.77810000     -71.12220000
H      -45.29050000     -36.21520000     -69.44930000
C      -45.18710000     -34.69550000     -71.17160000
H      -45.46720000     -34.64520000     -72.21020000
H      -45.84140000     -33.94940000     -70.61770000
C      -45.16460000     -32.29360000     -73.58460000
H      -45.14810000     -31.85620000     -74.57320000
H      -45.49410000     -33.39090000     -73.69720000
C      -43.74840000     -32.30070000     -73.00420000
C      -42.82150000     -31.35530000     -73.42850000
C      -43.23210000     -33.10450000     -71.93810000
H      -42.94120000     -30.66270000     -74.28490000
C      -41.97180000     -32.65670000     -71.57850000
C      -43.72770000     -34.21410000     -71.13400000
C      -42.80160000     -34.57100000     -70.17450000
S      -41.25510000     -31.43300000     -72.59480000
S      -41.27920000     -33.66910000     -70.25880000
H      -42.85160000     -35.37660000     -69.41190000
