40
Properties=species:S:1:pos:R:3 #=T CELL(abcABC):=T 1.889726e+02=T 90.00000=T Traj:=T positionsangstrom=T Step:=T 0=T Bead:=T pbc="F F F"
C      -47.75060000     -34.86760000     -68.72290000
C      -47.00810000     -33.75700000     -69.22760000
C      -47.19420000     -33.44490000     -70.58770000
C      -47.94470000     -34.24900000     -71.43880000
C      -48.66330000     -35.36350000     -70.93290000
C      -48.56310000     -35.61300000     -69.54710000
H      -47.57250000     -35.25590000     -67.71340000
H      -46.68320000     -32.57940000     -71.02300000
H      -49.23310000     -35.91990000     -71.62390000
H      -49.05380000     -36.48680000     -69.08450000
C      -48.07810000     -33.75010000     -72.84120000
H      -47.68310000     -32.75930000     -72.79810000
H      -49.16510000     -33.67470000     -73.15970000
C      -45.92310000     -33.01790000     -68.51090000
H      -45.47620000     -32.31020000     -69.17360000
H      -46.18970000     -32.65780000     -67.49520000
S      -47.18060000     -34.56280000     -74.27260000
S      -44.55150000     -34.20500000     -68.01650000
C      -45.76640000     -35.31600000     -73.36120000
H      -46.09520000     -35.35380000     -72.35610000
H      -45.61960000     -36.35670000     -73.75960000
C      -44.22410000     -35.25030000     -69.51620000
H      -45.08540000     -35.19890000     -70.10690000
H      -43.96360000     -36.23710000     -69.23330000
C      -43.00010000     -34.71500000     -70.36200000
H      -42.19470000     -34.72570000     -69.66000000
H      -42.91770000     -35.36730000     -71.19120000
C      -44.41790000     -34.67050000     -73.65970000
H      -44.17930000     -34.75600000     -74.76050000
H      -43.63780000     -35.29210000     -73.19910000
C      -44.32660000     -33.18950000     -73.32490000
C      -44.50790000     -32.07930000     -74.18970000
C      -43.74120000     -32.73800000     -72.04570000
H      -44.88490000     -32.02050000     -75.18040000
C      -43.67180000     -31.28790000     -71.99430000
C      -43.18630000     -33.28520000     -70.79570000
C      -42.84470000     -32.27390000     -69.91380000
S      -44.23240000     -30.53990000     -73.42540000
S      -43.07220000     -30.64120000     -70.47610000
H      -42.66670000     -32.42380000     -68.92180000
