40
Properties=species:S:1:pos:R:3 #=T CELL(abcABC):=T 1.889726e+02=T 90.00000=T Traj:=T positionsangstrom=T Step:=T 0=T Bead:=T pbc="F F F"
C      -47.92860000     -34.78470000     -68.72350000
C      -46.76900000     -34.17820000     -69.19390000
C      -46.72290000     -33.65800000     -70.49550000
C      -47.74820000     -33.84400000     -71.41130000
C      -48.96410000     -34.56200000     -70.94670000
C      -48.97980000     -34.91980000     -69.62020000
H      -48.00180000     -35.19860000     -67.69410000
H      -45.86630000     -33.03230000     -70.77410000
H      -49.77980000     -34.65850000     -71.73260000
H      -49.83870000     -35.57580000     -69.30000000
C      -47.66800000     -33.35930000     -72.87030000
H      -47.14710000     -32.42550000     -73.00840000
H      -48.69210000     -33.18750000     -73.15130000
C      -45.68140000     -33.64050000     -68.27930000
H      -45.22590000     -32.71510000     -68.64750000
H      -46.05270000     -33.69320000     -67.26670000
S      -47.07850000     -34.82410000     -73.88160000
S      -44.29480000     -35.00080000     -68.16330000
C      -45.58040000     -35.61130000     -72.96150000
H      -45.73680000     -35.64640000     -71.86420000
H      -45.62040000     -36.67010000     -73.25220000
C      -43.45920000     -35.02150000     -69.85490000
H      -44.26450000     -35.15580000     -70.68490000
H      -42.84930000     -35.95020000     -69.77890000
C      -42.44560000     -33.90520000     -70.10190000
H      -42.11300000     -33.61720000     -69.08250000
H      -41.54670000     -34.30250000     -70.60670000
C      -44.24010000     -34.91950000     -73.16430000
H      -43.84650000     -35.19530000     -74.16160000
H      -43.60230000     -35.39440000     -72.40300000
C      -44.29460000     -33.39530000     -73.08570000
C      -44.67170000     -32.65090000     -74.17660000
C      -43.82190000     -32.52090000     -71.96120000
H      -44.99620000     -33.01350000     -75.11990000
C      -44.07700000     -31.18600000     -72.22160000
C      -43.02650000     -32.65970000     -70.72820000
C      -42.83700000     -31.46270000     -70.11460000
S      -44.70910000     -30.96420000     -73.76270000
S      -43.80940000     -30.21070000     -70.86880000
H      -42.51130000     -31.36300000     -69.10490000
