40
Properties=species:S:1:pos:R:3 #=T CELL(abcABC):=T 1.889726e+02=T 90.00000=T Traj:=T positionsangstrom=T Step:=T 0=T Bead:=T pbc="F F F"
C      -43.21550000     -33.13030000     -70.54390000
C      -43.30020000     -32.31050000     -71.61450000
C      -44.13270000     -31.14260000     -71.60840000
C      -44.71690000     -30.77380000     -70.39740000
C      -44.65750000     -31.61310000     -69.25260000
C      -43.90980000     -32.79740000     -69.33140000
H      -42.58270000     -34.09120000     -70.50520000
H      -44.40510000     -30.56250000     -72.41070000
H      -44.99000000     -31.31130000     -68.29860000
H      -43.58220000     -33.37560000     -68.45860000
C      -45.62360000     -29.56680000     -70.32690000
H      -45.10160000     -28.74730000     -70.82720000
H      -45.80000000     -29.40460000     -69.31090000
C      -42.42730000     -32.65560000     -72.76450000
H      -41.48630000     -32.00890000     -72.84200000
H      -42.06970000     -33.63100000     -72.69140000
S      -47.14550000     -29.83480000     -71.33420000
S      -43.23330000     -32.66770000     -74.42540000
C      -47.73470000     -31.39650000     -70.74240000
H      -47.35850000     -31.40420000     -69.76840000
H      -48.82170000     -31.42370000     -70.55240000
C      -44.06020000     -34.34130000     -74.47120000
H      -43.38020000     -35.05590000     -74.07090000
H      -44.27880000     -34.58880000     -75.52270000
C      -45.41830000     -34.37830000     -73.62290000
H      -45.56940000     -33.28080000     -73.45910000
H      -46.25940000     -34.83620000     -74.16210000
C      -47.35460000     -32.64060000     -71.57610000
H      -46.40040000     -32.39890000     -72.09830000
H      -48.16860000     -32.80210000     -72.24820000
C      -47.03290000     -33.87350000     -70.76860000
C      -47.56300000     -34.14700000     -69.50720000
C      -46.13640000     -34.91490000     -71.18220000
H      -48.28260000     -33.50790000     -69.01410000
C      -46.04470000     -36.00450000     -70.27230000
C      -45.21740000     -35.05750000     -72.31970000
C      -44.40620000     -36.17960000     -72.17420000
S      -47.12380000     -35.76110000     -68.93180000
S      -44.79770000     -37.11250000     -70.66860000
H      -43.60620000     -36.62650000     -72.70600000
