40
Properties=species:S:1:pos:R:3 #=T CELL(abcABC):=T 1.889726e+02=T 90.00000=T Traj:=T positionsangstrom=T Step:=T 0=T Bead:=T pbc="F F F"
C      -47.57720000     -34.86510000     -69.02870000
C      -46.88740000     -33.76380000     -69.48800000
C      -47.12520000     -33.43660000     -70.82190000
C      -48.03810000     -34.16900000     -71.62180000
C      -48.70840000     -35.30260000     -71.11270000
C      -48.49470000     -35.61450000     -69.77380000
H      -47.49060000     -35.16720000     -68.01660000
H      -46.70850000     -32.59200000     -71.23160000
H      -49.30510000     -35.80420000     -71.85680000
H      -49.01980000     -36.39820000     -69.34360000
C      -48.38300000     -33.79760000     -73.00370000
H      -48.46740000     -32.66530000     -73.18490000
H      -49.35000000     -34.16430000     -73.31670000
C      -45.99390000     -33.03370000     -68.57640000
H      -45.58920000     -32.19120000     -69.20290000
H      -46.55570000     -32.58110000     -67.76670000
S      -47.20230000     -34.58530000     -74.18610000
S      -44.58830000     -34.12690000     -67.90750000
C      -45.77050000     -35.26200000     -73.22460000
H      -45.89750000     -35.06380000     -72.14240000
H      -45.69380000     -36.35420000     -73.30440000
C      -44.22780000     -35.14100000     -69.35530000
H      -45.24580000     -35.29760000     -69.87530000
H      -44.02730000     -36.20110000     -69.00920000
C      -43.10610000     -34.62960000     -70.27680000
H      -42.16190000     -34.78980000     -69.78740000
H      -43.12430000     -35.27730000     -71.23100000
C      -44.32990000     -34.71750000     -73.54530000
H      -44.26780000     -34.81720000     -74.60930000
H      -43.57410000     -35.29880000     -72.96340000
C      -44.21870000     -33.27400000     -73.10290000
C      -44.54550000     -32.36630000     -74.09630000
C      -43.65750000     -32.68990000     -71.87800000
H      -44.82840000     -32.42510000     -75.10760000
C      -43.71440000     -31.30940000     -71.93050000
C      -43.16310000     -33.17920000     -70.61560000
C      -42.77050000     -32.16620000     -69.76590000
S      -44.27920000     -30.74710000     -73.48780000
S      -42.96140000     -30.54630000     -70.50710000
H      -42.37100000     -32.28280000     -68.80710000
