40
Properties=species:S:1:pos:R:3 #=T CELL(abcABC):=T 1.889726e+02=T 90.00000=T Traj:=T positionsangstrom=T Step:=T 0=T Bead:=T pbc="F F F"
C      -47.19500000     -33.79090000     -68.51970000
C      -47.86700000     -34.47140000     -69.55470000
C      -48.54090000     -33.73980000     -70.52980000
C      -48.29070000     -32.39920000     -70.63410000
C      -47.60210000     -31.71940000     -69.63550000
C      -47.09270000     -32.41010000     -68.49240000
H      -46.80000000     -34.39840000     -67.68950000
H      -49.10740000     -34.21950000     -71.30210000
H      -47.65070000     -30.61150000     -69.78250000
H      -46.69810000     -31.79500000     -67.65020000
C      -48.81690000     -31.59440000     -71.84290000
H      -48.69940000     -30.54870000     -71.65710000
H      -49.88140000     -31.78930000     -71.89460000
C      -47.90070000     -35.95240000     -69.60180000
H      -47.52510000     -36.33560000     -68.61100000
H      -48.95210000     -36.35820000     -69.68340000
S      -47.90300000     -32.03480000     -73.35760000
S      -46.99950000     -36.73560000     -70.91120000
C      -46.18260000     -31.50920000     -72.94270000
H      -46.03160000     -30.52170000     -73.32690000
H      -46.11290000     -31.42920000     -71.83080000
C      -45.20850000     -36.23110000     -70.61120000
H      -44.49700000     -36.94900000     -70.95440000
H      -45.05380000     -36.16080000     -69.51290000
C      -45.08410000     -34.86920000     -71.28250000
H      -45.23050000     -35.05450000     -72.36080000
H      -45.91160000     -34.23110000     -70.96170000
C      -45.24170000     -32.51270000     -73.56250000
H      -45.24930000     -32.46300000     -74.66480000
H      -45.63520000     -33.43510000     -73.25500000
C      -43.83180000     -32.39560000     -72.99450000
C      -42.89420000     -31.51900000     -73.53480000
C      -43.32610000     -33.09410000     -71.85230000
H      -43.12810000     -30.81550000     -74.33820000
C      -42.01620000     -32.63210000     -71.55480000
C      -43.79180000     -34.21760000     -71.02820000
C      -42.83040000     -34.56370000     -70.13780000
S      -41.35220000     -31.54400000     -72.69290000
S      -41.29770000     -33.62950000     -70.27640000
H      -42.78850000     -35.35060000     -69.34600000
