40
Properties=species:S:1:pos:R:3 #=T CELL(abcABC):=T 1.889726e+02=T 90.00000=T Traj:=T positionsangstrom=T Step:=T 0=T Bead:=T pbc="F F F"
C      -47.95060000     -34.85310000     -68.60790000
C      -46.99680000     -33.89600000     -69.00930000
C      -46.92770000     -33.42010000     -70.35790000
C      -47.83380000     -33.87360000     -71.29440000
C      -48.87620000     -34.79990000     -70.91920000
C      -48.86210000     -35.27450000     -69.64700000
H      -47.96430000     -35.35930000     -67.64300000
H      -46.05990000     -32.76750000     -70.54900000
H      -49.50320000     -35.28890000     -71.67960000
H      -49.53550000     -36.05950000     -69.36970000
C      -47.52370000     -33.51500000     -72.72240000
H      -46.64900000     -32.84370000     -72.77650000
H      -48.34990000     -33.07610000     -73.18640000
C      -46.01320000     -33.44440000     -67.98180000
H      -45.83680000     -32.37900000     -68.31910000
H      -46.49800000     -33.47370000     -67.02220000
S      -47.17110000     -34.95150000     -73.76950000
S      -44.39450000     -34.40060000     -67.97440000
C      -45.45500000     -35.29950000     -73.12170000
H      -45.48090000     -34.95640000     -72.04400000
H      -45.32450000     -36.34170000     -73.03380000
C      -44.22470000     -35.35320000     -69.63220000
H      -45.14910000     -35.34800000     -70.12250000
H      -43.96540000     -36.32530000     -69.37920000
C      -43.22830000     -34.62860000     -70.59890000
H      -42.22550000     -34.85290000     -70.23920000
H      -43.21020000     -35.27640000     -71.57380000
C      -44.29670000     -34.62090000     -73.80800000
H      -44.46120000     -34.75560000     -74.84170000
H      -43.26890000     -34.93210000     -73.54050000
C      -44.18740000     -33.14400000     -73.53390000
C      -44.49180000     -32.16940000     -74.42820000
C      -43.78760000     -32.61970000     -72.22540000
H      -44.73220000     -32.46570000     -75.49130000
C      -43.80680000     -31.21050000     -72.20040000
C      -43.41430000     -33.18470000     -70.97900000
C      -43.08230000     -32.22740000     -70.08420000
S      -44.35160000     -30.52200000     -73.70820000
S      -43.11410000     -30.58650000     -70.68500000
H      -42.51050000     -32.49680000     -69.19380000
