40
Properties=species:S:1:pos:R:3 #=T CELL(abcABC):=T 1.889726e+02=T 90.00000=T Traj:=T positionsangstrom=T Step:=T 0=T Bead:=T pbc="F F F"
C      -47.97960000     -34.55150000     -68.58360000
C      -46.78410000     -33.97650000     -69.10380000
C      -46.79910000     -33.51090000     -70.44250000
C      -47.84800000     -33.79910000     -71.42400000
C      -48.97630000     -34.53140000     -70.87840000
C      -48.99860000     -34.83610000     -69.47710000
H      -48.17800000     -34.66780000     -67.58130000
H      -45.91410000     -33.03180000     -70.84440000
H      -49.80040000     -34.74870000     -71.57520000
H      -49.91290000     -35.18020000     -68.93780000
C      -47.68990000     -33.43400000     -72.86490000
H      -47.05810000     -32.52770000     -73.00670000
H      -48.67900000     -33.20700000     -73.29490000
C      -45.52620000     -33.74040000     -68.25530000
H      -45.04950000     -32.82520000     -68.59240000
H      -45.77460000     -33.43500000     -67.24890000
S      -46.93490000     -34.81980000     -73.90980000
S      -44.37670000     -35.07760000     -68.10320000
C      -45.50840000     -35.36390000     -72.96880000
H      -45.70610000     -35.34770000     -71.93330000
H      -45.54090000     -36.48400000     -73.14720000
C      -43.55000000     -35.19660000     -69.82170000
H      -44.34720000     -35.27380000     -70.51750000
H      -43.07950000     -36.15740000     -69.69210000
C      -42.60370000     -34.09730000     -70.24050000
H      -41.88630000     -33.88880000     -69.41910000
H      -42.09520000     -34.43110000     -71.13050000
C      -44.09650000     -34.86030000     -73.29320000
H      -43.79150000     -35.00120000     -74.37650000
H      -43.34300000     -35.28950000     -72.62670000
C      -44.03910000     -33.37230000     -73.21190000
C      -44.44390000     -32.58820000     -74.26580000
C      -43.70190000     -32.58910000     -72.04590000
H      -44.69380000     -33.00380000     -75.23820000
C      -44.02440000     -31.26080000     -72.26920000
C      -43.28810000     -32.80200000     -70.74000000
C      -43.32960000     -31.65410000     -70.00810000
S      -44.75130000     -30.92760000     -73.78200000
S      -43.72340000     -30.24320000     -70.87230000
H      -42.96700000     -31.48800000     -68.95920000
