40
Properties=species:S:1:pos:R:3 #=T CELL(abcABC):=T 1.889726e+02=T 90.00000=T Traj:=T positionsangstrom=T Step:=T 0=T Bead:=T pbc="F F F"
C      -48.66700000     -33.83220000     -69.19630000
C      -47.43630000     -33.20040000     -69.48670000
C      -46.99740000     -33.06060000     -70.82590000
C      -47.74310000     -33.56250000     -71.88540000
C      -49.01950000     -34.03820000     -71.62280000
C      -49.51200000     -34.12910000     -70.27230000
H      -49.11330000     -33.76480000     -68.19720000
H      -46.10740000     -32.55580000     -70.99410000
H      -49.66710000     -34.27510000     -72.49660000
H      -50.51740000     -34.39040000     -70.11390000
C      -47.21860000     -33.57380000     -73.23000000
H      -46.28730000     -32.99890000     -73.31410000
H      -47.80440000     -33.24440000     -74.07730000
C      -46.54110000     -32.79990000     -68.40450000
H      -45.81980000     -32.08650000     -68.78910000
H      -47.10050000     -32.43990000     -67.46900000
S      -46.68110000     -35.19960000     -74.02410000
S      -45.47830000     -34.27050000     -67.96410000
C      -45.25190000     -35.75560000     -72.96370000
H      -45.49550000     -35.57230000     -71.87550000
H      -45.24020000     -36.82280000     -73.14280000
C      -44.97720000     -35.12890000     -69.50780000
H      -45.78570000     -34.92040000     -70.30520000
H      -45.13910000     -36.20180000     -69.22870000
C      -43.54860000     -34.77250000     -69.94460000
H      -42.81160000     -34.87430000     -69.13920000
H      -43.22860000     -35.30640000     -70.78470000
C      -43.91570000     -35.12840000     -73.35540000
H      -43.91130000     -35.26090000     -74.41280000
H      -43.16080000     -35.68560000     -72.82260000
C      -43.75320000     -33.60310000     -73.08220000
C      -43.68010000     -32.72770000     -74.14820000
C      -43.62680000     -32.94810000     -71.77270000
H      -43.80250000     -32.94720000     -75.18010000
C      -43.40720000     -31.61140000     -71.93880000
C      -43.50980000     -33.35250000     -70.39230000
C      -43.26950000     -32.30060000     -69.55580000
S      -43.40810000     -31.07630000     -73.55890000
S      -42.94960000     -30.76890000     -70.39770000
H      -42.79400000     -32.39870000     -68.61410000
