40
Properties=species:S:1:pos:R:3 #=T CELL(abcABC):=T 1.889726e+02=T 90.00000=T Traj:=T positionsangstrom=T Step:=T 0=T Bead:=T pbc="F F F"
C      -48.47050000     -33.83180000     -69.24310000
C      -47.27900000     -33.32050000     -69.72540000
C      -46.93970000     -33.42280000     -71.09720000
C      -47.91960000     -33.63460000     -72.07870000
C      -49.21020000     -34.01760000     -71.54750000
C      -49.47940000     -34.19590000     -70.20000000
H      -48.61450000     -34.02230000     -68.19080000
H      -45.91610000     -32.99840000     -71.35540000
H      -50.09340000     -34.11770000     -72.16490000
H      -50.46960000     -34.59970000     -69.89180000
C      -47.47720000     -33.81110000     -73.55830000
H      -46.73080000     -33.02550000     -73.76220000
H      -48.29210000     -33.60000000     -74.14710000
C      -46.28090000     -32.79700000     -68.68300000
H      -45.62880000     -32.04970000     -69.22220000
H      -46.77850000     -32.36670000     -67.85220000
S      -46.72370000     -35.46560000     -73.96380000
S      -45.19620000     -34.04590000     -67.83560000
C      -45.16600000     -35.66000000     -73.00610000
H      -45.38170000     -35.33120000     -72.01700000
H      -44.95550000     -36.74910000     -72.90520000
C      -44.74570000     -35.18140000     -69.22880000
H      -45.62380000     -35.37760000     -69.85070000
H      -44.55020000     -36.22830000     -68.74470000
C      -43.46590000     -34.80790000     -69.89940000
H      -42.64620000     -34.92220000     -69.23400000
H      -43.29430000     -35.57640000     -70.69500000
C      -43.94710000     -34.94420000     -73.49280000
H      -43.91100000     -35.07300000     -74.57460000
H      -43.07150000     -35.60350000     -73.25360000
C      -43.87200000     -33.48660000     -73.09750000
C      -43.89190000     -32.52680000     -74.06760000
C      -43.61390000     -32.94790000     -71.80050000
H      -44.01760000     -32.65340000     -75.11570000
C      -43.46740000     -31.50530000     -71.80960000
C      -43.42350000     -33.39640000     -70.42490000
C      -43.12840000     -32.35030000     -69.56950000
S      -43.67690000     -30.89770000     -73.45790000
S      -43.05140000     -30.75840000     -70.31880000
H      -43.17220000     -32.42440000     -68.45570000
