40
Properties=species:S:1:pos:R:3 #=T CELL(abcABC):=T 1.889726e+02=T 90.00000=T Traj:=T positionsangstrom=T Step:=T 0=T Bead:=T pbc="F F F"
C      -48.77010000     -33.19080000     -69.39780000
C      -47.39980000     -32.99740000     -69.71690000
C      -46.91600000     -32.89480000     -71.06360000
C      -47.91960000     -32.96690000     -72.07470000
C      -49.27360000     -33.29150000     -71.75820000
C      -49.68060000     -33.36970000     -70.39740000
H      -49.20610000     -33.15680000     -68.42190000
H      -45.90340000     -32.71990000     -71.18270000
H      -50.01330000     -33.35620000     -72.57640000
H      -50.72710000     -33.62430000     -70.12390000
C      -47.48520000     -32.68650000     -73.50130000
H      -46.71300000     -31.83880000     -73.39560000
H      -48.38450000     -32.37810000     -74.06370000
C      -46.38150000     -32.92670000     -68.56890000
H      -45.49730000     -32.40730000     -68.97390000
H      -46.80810000     -32.37110000     -67.70260000
S      -46.78200000     -34.13470000     -74.49940000
S      -45.89980000     -34.58290000     -67.91490000
C      -45.78470000     -35.04240000     -73.25920000
H      -46.09560000     -34.72620000     -72.30200000
H      -46.12930000     -36.02050000     -73.27800000
C      -45.48960000     -35.52570000     -69.39310000
H      -46.14580000     -35.22380000     -70.20640000
H      -45.63030000     -36.58160000     -69.13090000
C      -44.04400000     -35.43250000     -69.98240000
H      -43.36450000     -35.92780000     -69.24750000
H      -43.96570000     -36.08700000     -70.81500000
C      -44.19900000     -35.09180000     -73.51960000
H      -43.93770000     -35.42680000     -74.54250000
H      -43.77520000     -35.83920000     -72.78550000
C      -43.58600000     -33.81270000     -73.07990000
C      -43.26660000     -32.80660000     -73.94410000
C      -43.41850000     -33.41460000     -71.65850000
H      -43.29700000     -32.82740000     -74.96140000
C      -42.87920000     -32.17170000     -71.60890000
C      -43.49790000     -34.01740000     -70.34570000
C      -43.14600000     -33.10390000     -69.35690000
S      -42.66600000     -31.34380000     -73.11260000
S      -42.61870000     -31.60920000     -69.99460000
H      -43.04390000     -33.24950000     -68.30220000
