40
Properties=species:S:1:pos:R:3 #=T CELL(abcABC):=T 1.889726e+02=T 90.00000=T Traj:=T positionsangstrom=T Step:=T 0=T Bead:=T pbc="F F F"
C      -47.09110000     -33.57920000     -68.28100000
C      -47.79430000     -34.31010000     -69.24720000
C      -48.34140000     -33.67930000     -70.37830000
C      -48.25630000     -32.31450000     -70.54840000
C      -47.58670000     -31.58450000     -69.53140000
C      -46.95620000     -32.16890000     -68.45510000
H      -46.83790000     -33.99360000     -67.28060000
H      -48.76340000     -34.35400000     -71.20710000
H      -47.40530000     -30.55740000     -69.73720000
H      -46.63060000     -31.54780000     -67.64570000
C      -48.74090000     -31.60660000     -71.77260000
H      -48.55930000     -30.54970000     -71.67140000
H      -49.79460000     -31.78190000     -71.90670000
C      -47.87170000     -35.87980000     -69.12710000
H      -47.51860000     -36.21720000     -68.13140000
H      -48.94580000     -36.22330000     -69.18430000
S      -47.88730000     -32.18090000     -73.37270000
S      -47.02970000     -36.77550000     -70.54240000
C      -46.18640000     -31.93290000     -72.78070000
H      -45.89730000     -30.86810000     -72.77050000
H      -45.97030000     -32.36320000     -71.80480000
C      -45.23650000     -36.06780000     -70.43520000
H      -44.56560000     -36.94560000     -70.57880000
H      -45.12550000     -35.57320000     -69.45610000
C      -45.04370000     -35.12160000     -71.60150000
H      -44.98250000     -35.64360000     -72.55820000
H      -45.90300000     -34.45760000     -71.63180000
C      -45.23870000     -32.59830000     -73.77520000
H      -45.31350000     -32.24810000     -74.80610000
H      -45.42730000     -33.68350000     -73.86390000
C      -43.84320000     -32.42400000     -73.28110000
C      -43.02960000     -31.38880000     -73.61890000
C      -43.27470000     -33.22100000     -72.18030000
H      -43.20050000     -30.64590000     -74.35140000
C      -42.01380000     -32.75840000     -71.81790000
C      -43.71500000     -34.37110000     -71.40810000
C      -42.76900000     -34.68680000     -70.47690000
S      -41.51920000     -31.36290000     -72.77520000
S      -41.42810000     -33.57930000     -70.41290000
H      -42.81850000     -35.39750000     -69.70250000
