40
Properties=species:S:1:pos:R:3 #=T CELL(abcABC):=T 1.889726e+02=T 90.00000=T Traj:=T positionsangstrom=T Step:=T 0=T Bead:=T pbc="F F F"
C      -48.83750000     -33.42040000     -69.48710000
C      -47.47610000     -33.06250000     -69.65280000
C      -46.96830000     -32.67600000     -70.88330000
C      -47.75070000     -32.87000000     -72.06310000
C      -49.08000000     -33.40010000     -71.96760000
C      -49.58060000     -33.63350000     -70.65600000
H      -49.26410000     -33.77910000     -68.54360000
H      -45.90750000     -32.29060000     -70.99510000
H      -49.73720000     -33.42640000     -72.83470000
H      -50.59240000     -33.82780000     -70.59900000
C      -46.99420000     -32.72580000     -73.43360000
H      -46.06530000     -32.27550000     -73.27280000
H      -47.53420000     -32.00610000     -74.07930000
C      -46.59470000     -32.86020000     -68.42590000
H      -45.86430000     -32.04640000     -68.49960000
H      -47.20690000     -32.55650000     -67.58730000
S      -46.83350000     -34.28710000     -74.34810000
S      -45.82950000     -34.47600000     -67.90850000
C      -45.69230000     -35.37980000     -73.28790000
H      -46.07910000     -35.35490000     -72.26790000
H      -45.91180000     -36.42300000     -73.60420000
C      -45.49450000     -35.43410000     -69.51580000
H      -46.03130000     -34.87330000     -70.26710000
H      -45.82340000     -36.46620000     -69.37020000
C      -44.01810000     -35.37350000     -69.83370000
H      -43.41610000     -35.72970000     -69.00120000
H      -43.85200000     -36.15910000     -70.60670000
C      -44.18960000     -35.17880000     -73.41630000
H      -43.81610000     -35.50170000     -74.38150000
H      -43.75500000     -35.94330000     -72.70490000
C      -43.68330000     -33.80990000     -73.01810000
C      -43.37100000     -32.87210000     -73.99090000
C      -43.39690000     -33.35080000     -71.68500000
H      -43.50710000     -32.95900000     -75.10250000
C      -42.95750000     -32.01920000     -71.65390000
C      -43.50190000     -33.92360000     -70.32850000
C      -43.14530000     -33.01870000     -69.33500000
S      -42.86640000     -31.31000000     -73.26740000
S      -42.62460000     -31.46480000     -69.99660000
H      -43.13890000     -33.20270000     -68.23510000
