40
Properties=species:S:1:pos:R:3 #=T CELL(abcABC):=T 1.889726e+02=T 90.00000=T Traj:=T positionsangstrom=T Step:=T 0=T Bead:=T pbc="F F F"
C      -48.82290000     -33.38430000     -69.56540000
C      -47.45260000     -32.99760000     -69.56460000
C      -46.80210000     -32.81590000     -70.83500000
C      -47.43160000     -33.00330000     -72.04470000
C      -48.83180000     -33.50620000     -72.05640000
C      -49.49720000     -33.56790000     -70.80770000
H      -49.45780000     -33.34370000     -68.70550000
H      -45.70390000     -32.50360000     -70.86930000
H      -49.35950000     -33.80280000     -72.96670000
H      -50.44190000     -34.08970000     -70.73550000
C      -46.82000000     -32.74070000     -73.38980000
H      -45.70160000     -32.50790000     -73.32100000
H      -47.29520000     -31.97170000     -74.05090000
C      -46.65930000     -32.89270000     -68.31970000
H      -45.89530000     -32.08840000     -68.45510000
H      -47.35260000     -32.60270000     -67.50570000
S      -46.88580000     -34.37980000     -74.43830000
S      -45.90100000     -34.49180000     -67.76400000
C      -45.92530000     -35.44210000     -73.27030000
H      -46.22770000     -35.30800000     -72.23230000
H      -46.10990000     -36.49270000     -73.49720000
C      -45.39920000     -35.36960000     -69.25520000
H      -46.08280000     -35.21710000     -70.12890000
H      -45.48640000     -36.42430000     -69.02050000
C      -43.87330000     -35.23170000     -69.74820000
H      -43.21920000     -35.45060000     -68.90320000
H      -43.73550000     -36.05520000     -70.46790000
C      -44.42670000     -35.20940000     -73.35890000
H      -44.15730000     -35.32750000     -74.41730000
H      -43.97240000     -36.07930000     -72.83380000
C      -43.81110000     -33.88320000     -72.96750000
C      -43.53180000     -32.91330000     -73.92100000
C      -43.52950000     -33.36180000     -71.63920000
H      -44.02600000     -32.96470000     -74.97110000
C      -43.05210000     -32.00810000     -71.70890000
C      -43.41930000     -33.86560000     -70.23640000
C      -42.92650000     -32.87960000     -69.40680000
S      -42.89930000     -31.40210000     -73.34640000
S      -42.67600000     -31.22640000     -70.19100000
H      -42.85630000     -33.02830000     -68.31660000
