40
Properties=species:S:1:pos:R:3 #=T CELL(abcABC):=T 1.889726e+02=T 90.00000=T Traj:=T positionsangstrom=T Step:=T 0=T Bead:=T pbc="F F F"
C      -48.61730000     -33.79120000     -69.53060000
C      -47.37750000     -33.18200000     -69.73290000
C      -46.95500000     -32.94350000     -71.04200000
C      -47.78480000     -33.15050000     -72.13990000
C      -49.03570000     -33.80280000     -71.92120000
C      -49.41710000     -34.19570000     -70.64640000
H      -48.81510000     -34.04630000     -68.51280000
H      -45.94860000     -32.43420000     -71.19540000
H      -49.67070000     -33.97930000     -72.81440000
H      -50.31400000     -34.78700000     -70.50860000
C      -47.34190000     -32.87420000     -73.60260000
H      -46.53620000     -32.10850000     -73.79810000
H      -48.13280000     -32.61180000     -74.24750000
C      -46.44960000     -32.76950000     -68.58180000
H      -45.67170000     -32.13570000     -68.99850000
H      -46.88510000     -32.05540000     -67.77110000
S      -46.64700000     -34.49590000     -74.28550000
S      -45.57890000     -34.18850000     -67.70290000
C      -45.76710000     -35.60500000     -73.05680000
H      -46.20800000     -35.44350000     -72.10610000
H      -46.05550000     -36.62650000     -73.30660000
C      -45.07770000     -35.16650000     -69.11140000
H      -45.83910000     -34.96330000     -69.91290000
H      -45.12580000     -36.22480000     -68.81680000
C      -43.68000000     -34.99890000     -69.69970000
H      -43.06070000     -35.20220000     -68.87600000
H      -43.56660000     -35.70370000     -70.51220000
C      -44.20470000     -35.38940000     -72.98130000
H      -43.70620000     -35.88210000     -73.88330000
H      -43.88760000     -35.79070000     -72.05260000
C      -43.83230000     -33.86930000     -72.87710000
C      -43.51340000     -33.10110000     -73.95700000
C      -43.46190000     -33.21290000     -71.62590000
H      -43.55480000     -33.44420000     -75.01220000
C      -43.16550000     -31.85160000     -71.78000000
C      -43.47310000     -33.61720000     -70.23440000
C      -43.27040000     -32.52390000     -69.43350000
S      -43.11390000     -31.42210000     -73.53610000
S      -42.97200000     -31.00870000     -70.29170000
H      -43.16710000     -32.48190000     -68.33170000
