40
Properties=species:S:1:pos:R:3 #=T CELL(abcABC):=T 1.889726e+02=T 90.00000=T Traj:=T positionsangstrom=T Step:=T 0=T Bead:=T pbc="F F F"
C      -48.74420000     -33.28210000     -69.52460000
C      -47.37360000     -32.99130000     -69.82870000
C      -46.96330000     -32.73420000     -71.15450000
C      -47.94530000     -32.74710000     -72.15980000
C      -49.29260000     -33.02490000     -71.87810000
C      -49.65610000     -33.30060000     -70.54330000
H      -49.09360000     -33.53810000     -68.49430000
H      -45.89730000     -32.62040000     -71.33960000
H      -50.04350000     -32.81250000     -72.58620000
H      -50.69900000     -33.69110000     -70.20400000
C      -47.48240000     -32.55750000     -73.55260000
H      -46.64620000     -31.90100000     -73.56650000
H      -48.20080000     -32.19790000     -74.24110000
C      -46.44430000     -32.90250000     -68.66680000
H      -45.55440000     -32.33440000     -68.87140000
H      -46.87040000     -32.47880000     -67.76410000
S      -46.93870000     -34.14730000     -74.46910000
S      -45.94290000     -34.65150000     -68.05600000
C      -45.88420000     -35.12940000     -73.17910000
H      -46.17360000     -34.71340000     -72.14540000
H      -46.27910000     -36.18450000     -73.25390000
C      -45.46340000     -35.49980000     -69.51860000
H      -46.14000000     -35.11060000     -70.30130000
H      -45.76360000     -36.55280000     -69.47380000
C      -43.98230000     -35.41180000     -69.84140000
H      -43.39350000     -35.77150000     -69.01210000
H      -43.90620000     -36.13540000     -70.66810000
C      -44.28840000     -35.09140000     -73.39620000
H      -44.03940000     -35.27040000     -74.42310000
H      -43.94800000     -35.94760000     -72.83240000
C      -43.67650000     -33.82600000     -72.95440000
C      -43.37340000     -32.84860000     -73.82560000
C      -43.43220000     -33.42300000     -71.55790000
H      -43.62370000     -32.88570000     -74.81400000
C      -42.74180000     -32.19190000     -71.54880000
C      -43.48150000     -34.03260000     -70.22550000
C      -42.96850000     -33.20800000     -69.20930000
S      -42.65040000     -31.44690000     -73.12470000
S      -42.40330000     -31.63190000     -69.88870000
H      -42.68510000     -33.47580000     -68.21540000
