40
Properties=species:S:1:pos:R:3 #=T CELL(abcABC):=T 1.889726e+02=T 90.00000=T Traj:=T positionsangstrom=T Step:=T 0=T Bead:=T pbc="F F F"
C      -48.63900000     -33.28760000     -69.70560000
C      -47.28920000     -32.90570000     -69.82540000
C      -46.83040000     -32.50730000     -71.11950000
C      -47.65180000     -32.62000000     -72.23710000
C      -48.99500000     -33.05560000     -72.09820000
C      -49.51400000     -33.23700000     -70.88250000
H      -48.97890000     -33.63020000     -68.75790000
H      -45.77310000     -32.15400000     -71.16180000
H      -49.72780000     -32.98970000     -72.97330000
H      -50.57910000     -33.31390000     -70.81140000
C      -47.20600000     -32.42510000     -73.69260000
H      -46.27640000     -31.88500000     -73.76300000
H      -47.93840000     -31.85770000     -74.18480000
C      -46.44550000     -32.86950000     -68.62790000
H      -45.54980000     -32.27510000     -68.78750000
H      -46.97250000     -32.50040000     -67.77700000
S      -47.17090000     -34.09330000     -74.45910000
S      -46.04500000     -34.63990000     -68.07500000
C      -46.23390000     -35.10740000     -73.34320000
H      -46.71890000     -34.82040000     -72.42770000
H      -46.54960000     -36.17030000     -73.51210000
C      -45.43990000     -35.55470000     -69.66140000
H      -45.94030000     -35.10090000     -70.52160000
H      -45.90350000     -36.50860000     -69.53630000
C      -43.96050000     -35.58420000     -69.87120000
H      -43.46830000     -35.88790000     -68.94830000
H      -43.60170000     -36.31450000     -70.57020000
C      -44.66320000     -34.97400000     -73.27890000
H      -44.31060000     -35.17360000     -74.28290000
H      -44.22460000     -35.74320000     -72.66890000
C      -43.97920000     -33.70700000     -72.83560000
C      -43.73010000     -32.62130000     -73.59800000
C      -43.41780000     -33.54830000     -71.52370000
H      -43.92940000     -32.48870000     -74.67350000
C      -42.80300000     -32.28510000     -71.40830000
C      -43.32120000     -34.24710000     -70.25840000
C      -42.54630000     -33.53070000     -69.33900000
S      -42.95220000     -31.29240000     -72.79980000
S      -41.96550000     -31.93610000     -69.88350000
H      -42.49770000     -33.74050000     -68.22780000
