40
Properties=species:S:1:pos:R:3 #=T CELL(abcABC):=T 1.889726e+02=T 90.00000=T Traj:=T positionsangstrom=T Step:=T 0=T Bead:=T pbc="F F F"
C      -43.51060000     -34.57370000     -74.63700000
C      -44.90180000     -34.31330000     -74.47070000
C      -45.67090000     -35.10430000     -73.61970000
C      -45.07430000     -36.15490000     -72.92530000
C      -43.68680000     -36.36490000     -72.97640000
C      -42.92620000     -35.59470000     -73.88170000
H      -42.88320000     -33.85770000     -75.23460000
H      -46.67660000     -34.93630000     -73.54020000
H      -43.06260000     -37.17060000     -72.52900000
H      -41.86460000     -35.74770000     -73.96090000
C      -46.01160000     -36.90890000     -72.10020000
H      -45.58450000     -37.88810000     -71.97930000
H      -47.04180000     -37.03680000     -72.50960000
C      -45.55970000     -33.15060000     -75.24180000
H      -45.71800000     -33.33840000     -76.30720000
H      -46.58870000     -32.98640000     -74.83440000
S      -46.28090000     -36.31460000     -70.41040000
S      -44.65510000     -31.53830000     -75.02390000
C      -44.56000000     -36.02390000     -69.75600000
H      -44.63700000     -36.21520000     -68.66970000
H      -43.85180000     -36.69840000     -70.19670000
C      -45.31220000     -31.03730000     -73.35410000
H      -46.44960000     -30.83180000     -73.42670000
H      -44.72860000     -30.07030000     -73.24140000
C      -44.99430000     -32.04830000     -72.20970000
H      -45.52500000     -32.98660000     -72.47070000
H      -43.91880000     -32.21260000     -72.15810000
C      -44.07880000     -34.61850000     -69.91920000
H      -43.95120000     -34.42130000     -71.00720000
H      -43.13240000     -34.48560000     -69.52090000
C      -44.97270000     -33.53940000     -69.22450000
C      -45.11700000     -33.65460000     -67.86750000
C      -45.48090000     -32.21200000     -69.60570000
H      -44.64450000     -34.42000000     -67.26710000
C      -46.05380000     -31.50390000     -68.54020000
C      -45.60210000     -31.46920000     -70.86570000
C      -46.30550000     -30.31780000     -70.70400000
S      -45.87300000     -32.30750000     -67.02450000
S      -46.82610000     -30.02940000     -69.01310000
H      -46.75060000     -29.72970000     -71.50350000
