40
Properties=species:S:1:pos:R:3 #=T CELL(abcABC):=T 1.889726e+02=T 90.00000=T Traj:=T positionsangstrom=T Step:=T 0=T Bead:=T pbc="F F F"
C      -47.19000000     -33.47340000     -68.19120000
C      -47.75390000     -34.31180000     -69.18780000
C      -48.10490000     -33.68930000     -70.37920000
C      -48.22420000     -32.27670000     -70.46690000
C      -47.57330000     -31.50880000     -69.48570000
C      -46.98120000     -32.10460000     -68.37000000
H      -46.58170000     -33.90060000     -67.37450000
H      -48.47380000     -34.29410000     -71.19550000
H      -47.50130000     -30.39370000     -69.48920000
H      -46.28500000     -31.64960000     -67.79210000
C      -48.85500000     -31.64620000     -71.63920000
H      -48.75270000     -30.53610000     -71.53380000
H      -49.93440000     -31.83320000     -71.78320000
C      -47.83800000     -35.80840000     -69.02570000
H      -47.43310000     -36.06380000     -68.04700000
H      -48.80960000     -36.21530000     -69.05900000
S      -48.03350000     -32.25320000     -73.29530000
S      -46.92370000     -36.81830000     -70.33260000
C      -46.20880000     -31.88960000     -72.93800000
H      -46.12850000     -30.82640000     -72.97670000
H      -45.92240000     -32.17660000     -71.89550000
C      -45.32240000     -36.00270000     -70.35700000
H      -44.54110000     -36.75360000     -70.12180000
H      -45.24750000     -35.38360000     -69.45020000
C      -45.00380000     -35.14230000     -71.60630000
H      -45.09320000     -35.68710000     -72.52410000
H      -45.86950000     -34.39780000     -71.66310000
C      -45.28290000     -32.63910000     -73.89030000
H      -45.35910000     -32.18720000     -74.82740000
H      -45.57100000     -33.68750000     -74.06320000
C      -43.89770000     -32.43280000     -73.35070000
C      -43.06160000     -31.43010000     -73.75430000
C      -43.33270000     -33.24120000     -72.27500000
H      -43.28140000     -30.61280000     -74.32720000
C      -42.09940000     -32.75030000     -71.92360000
C      -43.67510000     -34.38060000     -71.47180000
C      -42.66990000     -34.71150000     -70.61250000
S      -41.61680000     -31.30040000     -72.70100000
S      -41.26220000     -33.65420000     -70.70780000
H      -42.74950000     -35.42940000     -69.79420000
