40
Properties=species:S:1:pos:R:3 #=T CELL(abcABC):=T 1.889726e+02=T 90.00000=T Traj:=T positionsangstrom=T Step:=T 0=T Bead:=T pbc="F F F"
C      -43.22950000     -34.75900000     -74.48790000
C      -44.61150000     -34.40530000     -74.34790000
C      -45.45720000     -35.09070000     -73.49040000
C      -45.00840000     -36.20470000     -72.81070000
C      -43.72100000     -36.58580000     -73.02800000
C      -42.85440000     -35.91580000     -73.84720000
H      -42.53240000     -34.17450000     -75.11480000
H      -46.52400000     -34.99160000     -73.48480000
H      -43.38970000     -37.49760000     -72.59640000
H      -41.82130000     -36.28820000     -73.90680000
C      -45.85180000     -36.96380000     -71.89580000
H      -45.57830000     -37.99660000     -71.82150000
H      -46.88200000     -37.10530000     -72.27920000
C      -45.16850000     -33.26330000     -75.19450000
H      -44.83880000     -33.43980000     -76.22320000
H      -46.24610000     -33.19120000     -75.17670000
S      -46.10210000     -36.35820000     -70.17990000
S      -44.42910000     -31.60710000     -74.85640000
C      -44.28730000     -35.84450000     -69.69730000
H      -44.29070000     -36.07500000     -68.64910000
H      -43.48210000     -36.38980000     -70.20250000
C      -45.27670000     -30.94520000     -73.44330000
H      -46.35160000     -31.13210000     -73.63270000
H      -45.01410000     -29.84900000     -73.36310000
C      -44.81990000     -31.76760000     -72.16070000
H      -44.99290000     -32.82260000     -72.37580000
H      -43.74880000     -31.63870000     -71.97100000
C      -44.21200000     -34.37480000     -70.11730000
H      -44.49380000     -34.19320000     -71.17080000
H      -43.15780000     -34.05670000     -70.04810000
C      -45.04660000     -33.34850000     -69.24190000
C      -45.50510000     -33.62000000     -68.01910000
C      -45.60930000     -32.09170000     -69.67450000
H      -45.12260000     -34.43140000     -67.44540000
C      -46.47350000     -31.52200000     -68.70180000
C      -45.57650000     -31.31400000     -70.90410000
C      -46.12280000     -30.08060000     -70.66580000
S      -46.58600000     -32.46740000     -67.32880000
S      -46.95920000     -29.95560000     -69.15340000
H      -46.26400000     -29.32000000     -71.44460000
