40
Properties=species:S:1:pos:R:3 #=T CELL(abcABC):=T 1.889726e+02=T 90.00000=T Traj:=T positionsangstrom=T Step:=T 0=T Bead:=T pbc="F F F"
C      -44.13840000     -34.44730000     -75.24100000
C      -45.32950000     -33.87240000     -74.72260000
C      -46.01080000     -34.63190000     -73.78100000
C      -45.53190000     -35.90040000     -73.33970000
C      -44.40310000     -36.46130000     -73.90640000
C      -43.70520000     -35.67350000     -74.84890000
H      -43.65460000     -33.92210000     -76.05520000
H      -47.00650000     -34.49590000     -73.51060000
H      -44.01930000     -37.41760000     -73.58540000
H      -42.78750000     -36.00100000     -75.27410000
C      -46.32740000     -36.62750000     -72.33930000
H      -46.00170000     -37.70880000     -72.22380000
H      -47.39520000     -36.57750000     -72.55270000
C      -45.87940000     -32.58300000     -75.26100000
H      -45.78320000     -32.64540000     -76.32970000
H      -46.91090000     -32.58510000     -74.99380000
S      -46.21900000     -35.90010000     -70.62590000
S      -44.95150000     -31.09840000     -74.72310000
C      -44.37100000     -36.07750000     -70.20320000
H      -44.26640000     -36.51680000     -69.28240000
H      -43.75500000     -36.59660000     -70.99290000
C      -45.59580000     -30.89930000     -73.02560000
H      -46.64440000     -31.17760000     -73.16820000
H      -45.39920000     -29.93070000     -72.68190000
C      -45.08570000     -31.93950000     -72.01420000
H      -45.32270000     -32.97280000     -72.29440000
H      -43.98810000     -31.97700000     -71.95890000
C      -43.70290000     -34.71330000     -70.05480000
H      -43.46220000     -34.24330000     -71.05430000
H      -42.68910000     -34.76090000     -69.59980000
C      -44.38620000     -33.77200000     -69.10240000
C      -44.41130000     -34.00940000     -67.73320000
C      -45.06590000     -32.51680000     -69.39110000
H      -44.12710000     -34.94440000     -67.24880000
C      -45.61170000     -31.92560000     -68.26070000
C      -45.54710000     -31.76590000     -70.55630000
C      -46.27640000     -30.62860000     -70.22710000
S      -45.24280000     -32.81820000     -66.75690000
S      -46.54750000     -30.45260000     -68.47360000
H      -46.64910000     -29.75720000     -70.80120000
