40
Properties=species:S:1:pos:R:3 #=T CELL(abcABC):=T 1.889726e+02=T 90.00000=T Traj:=T positionsangstrom=T Step:=T 0=T Bead:=T pbc="F F F"
C      -44.16640000     -34.73260000     -75.41420000
C      -45.34850000     -34.17900000     -74.91190000
C      -46.04000000     -34.84790000     -73.88440000
C      -45.57220000     -36.04540000     -73.39550000
C      -44.33530000     -36.49810000     -73.84930000
C      -43.58730000     -35.87470000     -74.82630000
H      -43.64040000     -34.11290000     -76.19910000
H      -46.91830000     -34.35930000     -73.53120000
H      -43.92610000     -37.39130000     -73.41350000
H      -42.52230000     -36.19170000     -75.10510000
C      -46.35380000     -36.73410000     -72.29560000
H      -45.98350000     -37.73410000     -72.06370000
H      -47.43570000     -36.75920000     -72.61930000
C      -45.86100000     -32.81200000     -75.27520000
H      -45.88790000     -32.60320000     -76.34660000
H      -46.79430000     -32.60330000     -74.85230000
S      -46.44750000     -35.65630000     -70.77700000
S      -44.57920000     -31.53450000     -74.69830000
C      -44.77660000     -35.94560000     -70.08540000
H      -44.68930000     -36.52250000     -69.12750000
H      -44.31500000     -36.58540000     -70.80170000
C      -45.32560000     -30.99550000     -73.05550000
H      -46.35400000     -31.16170000     -73.27050000
H      -45.08510000     -29.94640000     -72.87860000
C      -44.94180000     -31.96180000     -71.98730000
H      -45.22370000     -32.94810000     -72.39590000
H      -43.86710000     -31.98070000     -71.90450000
C      -43.90680000     -34.65560000     -69.90140000
H      -43.96730000     -34.13420000     -70.81060000
H      -42.88500000     -34.96880000     -69.76480000
C      -44.45530000     -33.58780000     -68.97440000
C      -44.59860000     -33.88210000     -67.63520000
C      -45.12900000     -32.37070000     -69.34580000
H      -43.95840000     -34.61040000     -67.18900000
C      -45.62750000     -31.76450000     -68.20640000
C      -45.49980000     -31.64850000     -70.54410000
C      -46.13270000     -30.46040000     -70.21340000
S      -45.35300000     -32.58900000     -66.70150000
S      -46.47210000     -30.27650000     -68.49130000
H      -46.55760000     -29.83050000     -70.98970000
