40
Properties=species:S:1:pos:R:3 #=T CELL(abcABC):=T 1.889726e+02=T 90.00000=T Traj:=T positionsangstrom=T Step:=T 0=T Bead:=T pbc="F F F"
C      -44.07760000     -34.17950000     -75.61140000
C      -45.27030000     -33.71900000     -75.04210000
C      -45.89540000     -34.43970000     -73.99690000
C      -45.36330000     -35.66390000     -73.50780000
C      -44.17200000     -36.14250000     -74.11810000
C      -43.52710000     -35.34990000     -75.07910000
H      -43.62220000     -33.59620000     -76.38420000
H      -46.81580000     -34.01830000     -73.49290000
H      -43.78470000     -37.15850000     -73.80950000
H      -42.53310000     -35.71880000     -75.48910000
C      -46.06590000     -36.45430000     -72.39110000
H      -45.87230000     -37.46890000     -72.46310000
H      -47.18610000     -36.42920000     -72.47820000
C      -45.92710000     -32.42010000     -75.55380000
H      -45.67430000     -32.12880000     -76.57540000
H      -47.01360000     -32.46330000     -75.54910000
S      -45.73060000     -35.77080000     -70.68350000
S      -45.20380000     -31.14630000     -74.47020000
C      -43.88860000     -35.72120000     -70.44090000
H      -43.65730000     -36.40750000     -69.52730000
H      -43.23550000     -36.05150000     -71.24430000
C      -46.02880000     -31.26950000     -72.82820000
H      -46.94030000     -31.71370000     -73.00910000
H      -46.21720000     -30.25890000     -72.41650000
C      -45.22730000     -32.16270000     -71.82040000
H      -45.22700000     -33.18470000     -72.04580000
H      -44.19370000     -31.81230000     -71.88470000
C      -43.49910000     -34.29600000     -70.14410000
H      -43.43090000     -33.67920000     -71.05650000
H      -42.47990000     -34.25380000     -69.79080000
C      -44.22280000     -33.62450000     -69.06010000
C      -44.09720000     -33.86580000     -67.73860000
C      -45.26920000     -32.59310000     -69.24200000
H      -43.36290000     -34.54040000     -67.32630000
C      -45.83450000     -32.20710000     -68.05960000
C      -45.76000000     -31.87660000     -70.41540000
C      -46.71260000     -30.95440000     -69.97330000
S      -45.16160000     -32.94550000     -66.68210000
S      -47.10800000     -31.07070000     -68.31770000
H      -47.32670000     -30.15710000     -70.53300000
