40
Properties=species:S:1:pos:R:3 #=T CELL(abcABC):=T 1.889726e+02=T 90.00000=T Traj:=T positionsangstrom=T Step:=T 0=T Bead:=T pbc="F F F"
C      -44.09790000     -34.27490000     -75.28290000
C      -45.36800000     -33.80670000     -74.83300000
C      -46.09440000     -34.53990000     -73.91760000
C      -45.61670000     -35.82370000     -73.39770000
C      -44.49020000     -36.38460000     -73.98620000
C      -43.70530000     -35.56550000     -74.91260000
H      -43.40400000     -33.63140000     -75.83310000
H      -46.98470000     -34.06150000     -73.52940000
H      -44.16020000     -37.33550000     -73.63870000
H      -42.79720000     -35.91160000     -75.26740000
C      -46.38450000     -36.51280000     -72.31870000
H      -46.22390000     -37.62950000     -72.23130000
H      -47.48110000     -36.40780000     -72.48700000
C      -45.90270000     -32.44040000     -75.31220000
H      -45.77580000     -32.43980000     -76.38810000
H      -46.97810000     -32.39430000     -75.04030000
S      -46.05080000     -35.75550000     -70.72300000
S      -45.02310000     -30.94940000     -74.60800000
C      -44.19850000     -35.88670000     -70.50820000
H      -44.13110000     -36.50770000     -69.63480000
H      -43.76500000     -36.32490000     -71.47670000
C      -45.74940000     -30.89300000     -72.82290000
H      -46.78980000     -31.21950000     -72.94740000
H      -45.73250000     -29.88830000     -72.41890000
C      -45.06250000     -31.92530000     -71.86000000
H      -45.20020000     -32.94630000     -72.25020000
H      -43.95040000     -31.88600000     -71.93020000
C      -43.58750000     -34.52250000     -70.27970000
H      -43.66880000     -34.04890000     -71.25210000
H      -42.54400000     -34.67480000     -70.08040000
C      -44.31730000     -33.74500000     -69.13820000
C      -44.25570000     -34.19180000     -67.86940000
C      -45.14950000     -32.58370000     -69.32770000
H      -43.78990000     -35.03690000     -67.42860000
C      -45.55230000     -32.06700000     -68.09280000
C      -45.62270000     -31.77140000     -70.46310000
C      -46.47590000     -30.82370000     -70.07980000
S      -45.02920000     -33.09800000     -66.77770000
S      -46.75530000     -30.78350000     -68.29430000
H      -46.74910000     -29.98060000     -70.69280000
