40
Properties=species:S:1:pos:R:3 #=T CELL(abcABC):=T 1.889726e+02=T 90.00000=T Traj:=T positionsangstrom=T Step:=T 0=T Bead:=T pbc="F F F"
C      -44.03930000     -34.22070000     -75.32530000
C      -45.36290000     -33.84940000     -74.94760000
C      -46.08320000     -34.68000000     -74.09360000
C      -45.49070000     -35.80040000     -73.46980000
C      -44.19810000     -36.21770000     -73.87250000
C      -43.51860000     -35.43130000     -74.85000000
H      -43.49990000     -33.49590000     -75.92850000
H      -47.06360000     -34.37870000     -73.87610000
H      -43.77360000     -37.12150000     -73.56040000
H      -42.61420000     -35.75760000     -75.22720000
C      -46.25000000     -36.47890000     -72.38340000
H      -45.93610000     -37.48100000     -72.17080000
H      -47.29670000     -36.47620000     -72.53940000
C      -46.11230000     -32.60750000     -75.36680000
H      -46.19780000     -32.39210000     -76.42350000
H      -47.07860000     -32.63720000     -74.82910000
S      -45.86360000     -35.52160000     -70.82310000
S      -45.14940000     -31.10200000     -74.70480000
C      -44.08680000     -35.83490000     -70.47800000
H      -44.04070000     -36.32770000     -69.51460000
H      -43.57900000     -36.35960000     -71.37570000
C      -45.77370000     -30.91360000     -72.89030000
H      -46.92970000     -31.16700000     -72.90100000
H      -45.69840000     -29.88870000     -72.66520000
C      -45.08450000     -31.83730000     -71.88940000
H      -45.32690000     -32.85670000     -72.20110000
H      -44.05090000     -31.84750000     -72.00090000
C      -43.45700000     -34.41770000     -70.22450000
H      -43.62730000     -33.78400000     -71.15050000
H      -42.34600000     -34.30950000     -69.89350000
C      -44.27090000     -33.75010000     -69.09510000
C      -44.23050000     -34.18560000     -67.78650000
C      -45.13340000     -32.54790000     -69.32410000
H      -43.64440000     -35.01250000     -67.36800000
C      -45.80690000     -32.27280000     -68.03140000
C      -45.64440000     -31.72610000     -70.41380000
C      -46.64230000     -30.84190000     -69.97510000
S      -45.09630000     -33.14730000     -66.64820000
S      -46.92080000     -30.89320000     -68.22750000
H      -47.26410000     -30.28430000     -70.71230000
