40
Properties=species:S:1:pos:R:3 #=T CELL(abcABC):=T 1.889726e+02=T 90.00000=T Traj:=T positionsangstrom=T Step:=T 0=T Bead:=T pbc="F F F"
C      -44.14490000     -34.33180000     -75.73700000
C      -45.23990000     -33.77970000     -75.06590000
C      -45.85170000     -34.59180000     -74.06090000
C      -45.34050000     -35.87360000     -73.65920000
C      -44.08640000     -36.23010000     -74.12780000
C      -43.59630000     -35.53580000     -75.28290000
H      -43.72650000     -33.83610000     -76.58960000
H      -46.84950000     -34.23720000     -73.59580000
H      -43.55050000     -37.11670000     -73.80020000
H      -42.73130000     -35.99980000     -75.79220000
C      -45.92700000     -36.60290000     -72.47600000
H      -45.36470000     -37.53310000     -72.36450000
H      -47.08140000     -36.79190000     -72.45440000
C      -45.86430000     -32.47010000     -75.40630000
H      -45.60300000     -32.21290000     -76.44850000
H      -46.96490000     -32.40540000     -75.12370000
S      -45.68210000     -35.73920000     -70.81620000
S      -45.25110000     -30.94250000     -74.49830000
C      -43.89430000     -35.71880000     -70.46700000
H      -43.63660000     -36.53080000     -69.79550000
H      -43.34840000     -35.82320000     -71.37280000
C      -46.08610000     -30.99990000     -72.81700000
H      -47.14270000     -31.28730000     -72.91910000
H      -46.16940000     -29.97050000     -72.38980000
C      -45.37290000     -32.01350000     -71.83280000
H      -45.23390000     -32.96320000     -72.31850000
H      -44.31690000     -31.65340000     -71.59860000
C      -43.42100000     -34.35290000     -69.93230000
H      -43.31320000     -33.65820000     -70.77380000
H      -42.34110000     -34.62240000     -69.60980000
C      -44.27640000     -33.65760000     -68.99040000
C      -44.06630000     -33.76550000     -67.67150000
C      -45.27960000     -32.64900000     -69.20410000
H      -43.35820000     -34.43160000     -67.17550000
C      -45.78670000     -32.14910000     -68.00250000
C      -45.94330000     -32.02300000     -70.40520000
C      -46.91260000     -31.12450000     -70.02940000
S      -45.09620000     -32.86310000     -66.56970000
S      -47.09200000     -31.02530000     -68.22410000
H      -47.47650000     -30.45180000     -70.65920000
