40
Properties=species:S:1:pos:R:3 #=T CELL(abcABC):=T 1.889726e+02=T 90.00000=T Traj:=T positionsangstrom=T Step:=T 0=T Bead:=T pbc="F F F"
C      -44.05700000     -34.00840000     -75.27340000
C      -45.36060000     -33.90490000     -74.76140000
C      -45.85350000     -34.81800000     -73.83740000
C      -44.99680000     -35.84590000     -73.37360000
C      -43.67170000     -35.96270000     -73.82400000
C      -43.22030000     -35.06520000     -74.82290000
H      -43.73700000     -33.29400000     -76.01080000
H      -46.86920000     -34.81460000     -73.38940000
H      -43.02760000     -36.83950000     -73.50400000
H      -42.17950000     -35.16260000     -75.17190000
C      -45.46440000     -36.81400000     -72.27950000
H      -44.84950000     -37.67130000     -72.33930000
H      -46.48540000     -37.16550000     -72.47930000
C      -46.20590000     -32.77970000     -75.29940000
H      -46.02270000     -32.67130000     -76.35810000
H      -47.26360000     -33.10050000     -75.08810000
S      -45.32200000     -36.04960000     -70.57080000
S      -45.94300000     -31.08900000     -74.68370000
C      -43.55890000     -35.59420000     -70.40640000
H      -43.10660000     -36.11090000     -69.59030000
H      -43.09650000     -35.93650000     -71.28720000
C      -46.58240000     -31.34750000     -72.91960000
H      -47.34740000     -32.13260000     -73.01070000
H      -46.98410000     -30.36680000     -72.66050000
C      -45.51020000     -31.80860000     -71.92750000
H      -45.17760000     -32.78770000     -72.15060000
H      -44.57610000     -31.20380000     -72.02700000
C      -43.43710000     -34.05630000     -70.42010000
H      -43.67930000     -33.77440000     -71.42210000
H      -42.36230000     -33.94790000     -70.20630000
C      -44.20550000     -33.45950000     -69.28930000
C      -44.06610000     -33.75040000     -67.95520000
C      -45.30750000     -32.53530000     -69.39970000
H      -43.40770000     -34.46950000     -67.50620000
C      -45.80260000     -32.12720000     -68.17200000
C      -45.95380000     -31.79150000     -70.47320000
C      -46.89910000     -30.94300000     -70.01850000
S      -45.07930000     -32.95030000     -66.81530000
S      -47.14030000     -30.94270000     -68.30440000
H      -47.64130000     -30.37370000     -70.64460000
