40
Properties=species:S:1:pos:R:3 #=T CELL(abcABC):=T 1.889726e+02=T 90.00000=T Traj:=T positionsangstrom=T Step:=T 0=T Bead:=T pbc="F F F"
C      -43.93290000     -33.88020000     -75.09720000
C      -45.24740000     -33.81440000     -74.67310000
C      -45.79940000     -34.76650000     -73.73930000
C      -44.95760000     -35.83430000     -73.31480000
C      -43.62660000     -35.92310000     -73.81680000
C      -43.04980000     -34.92820000     -74.56870000
H      -43.57190000     -33.11710000     -75.79730000
H      -46.89450000     -34.75100000     -73.36130000
H      -43.04760000     -36.87050000     -73.46230000
H      -42.04620000     -34.91680000     -74.88220000
C      -45.40320000     -36.76160000     -72.27260000
H      -44.92750000     -37.80210000     -72.34530000
H      -46.48690000     -36.92000000     -72.22330000
C      -46.28710000     -32.95390000     -75.34100000
H      -45.95750000     -32.82850000     -76.37290000
H      -47.27120000     -33.43800000     -75.28940000
S      -45.05650000     -36.28370000     -70.46270000
S      -46.34970000     -31.17810000     -74.66810000
C      -43.32360000     -35.55470000     -70.54170000
H      -42.75280000     -35.87360000     -69.63080000
H      -42.81410000     -35.88970000     -71.51420000
C      -46.80550000     -31.30900000     -72.90840000
H      -47.78320000     -31.85340000     -72.78560000
H      -47.02580000     -30.31320000     -72.59380000
C      -45.70550000     -31.94410000     -72.00840000
H      -45.63920000     -33.00340000     -72.38760000
H      -44.70910000     -31.51540000     -72.20430000
C      -43.34240000     -33.95640000     -70.40080000
H      -43.45620000     -33.37480000     -71.31160000
H      -42.31860000     -33.59040000     -70.10240000
C      -44.26100000     -33.46960000     -69.30200000
C      -44.07710000     -33.86810000     -67.99880000
C      -45.24800000     -32.40350000     -69.45190000
H      -43.37620000     -34.45060000     -67.47270000
C      -45.85160000     -32.09390000     -68.24890000
C      -45.97650000     -31.76830000     -70.54190000
C      -46.85560000     -30.85280000     -70.11680000
S      -45.20540000     -32.94140000     -66.91990000
S      -47.03300000     -30.86720000     -68.37920000
H      -47.44320000     -30.02640000     -70.64820000
