40
Properties=species:S:1:pos:R:3 #=T CELL(abcABC):=T 1.889726e+02=T 90.00000=T Traj:=T positionsangstrom=T Step:=T 0=T Bead:=T pbc="F F F"
C      -44.74570000     -34.03680000     -75.18040000
C      -45.74440000     -34.40040000     -74.29160000
C      -45.41600000     -35.47910000     -73.44920000
C      -44.16210000     -36.10140000     -73.44750000
C      -43.09280000     -35.53140000     -74.20970000
C      -43.49310000     -34.55650000     -75.16790000
H      -44.97440000     -33.34560000     -76.05580000
H      -46.16690000     -35.90100000     -72.74480000
H      -42.05310000     -35.80810000     -74.11240000
H      -42.75460000     -34.06090000     -75.87320000
C      -43.93470000     -37.21970000     -72.39770000
H      -42.92940000     -37.67480000     -72.43700000
H      -44.72930000     -38.04010000     -72.53840000
C      -47.09130000     -33.76190000     -74.32810000
H      -47.67510000     -34.29420000     -75.10150000
H      -47.72740000     -34.08770000     -73.40550000
S      -44.02060000     -36.69820000     -70.64390000
S      -47.06380000     -31.85760000     -74.51650000
C      -43.12560000     -35.09010000     -70.78400000
H      -42.36710000     -34.97850000     -70.02680000
H      -42.52710000     -35.21290000     -71.66910000
C      -47.28750000     -31.36250000     -72.73540000
H      -48.04460000     -32.01050000     -72.24340000
H      -47.64820000     -30.32690000     -72.68370000
C      -46.02250000     -31.51720000     -71.94620000
H      -45.60530000     -32.41190000     -72.23920000
H      -45.43360000     -30.74270000     -72.50740000
C      -44.04180000     -33.88010000     -70.88430000
H      -44.88420000     -34.19690000     -71.54920000
H      -43.58270000     -33.11410000     -71.46980000
C      -44.56460000     -33.24130000     -69.57460000
C      -44.30400000     -33.73900000     -68.30690000
C      -45.49240000     -32.11540000     -69.49960000
H      -43.65290000     -34.53010000     -67.96810000
C      -45.70620000     -31.65020000     -68.18730000
C      -46.19120000     -31.26900000     -70.49640000
C      -46.84950000     -30.22770000     -69.85700000
S      -45.04760000     -32.70240000     -67.00180000
S      -46.86030000     -30.36030000     -68.10150000
H      -47.46630000     -29.48930000     -70.26930000
