40
Properties=species:S:1:pos:R:3 #=T CELL(abcABC):=T 1.889726e+02=T 90.00000=T Traj:=T positionsangstrom=T Step:=T 0=T Bead:=T pbc="F F F"
C      -45.10910000     -33.76490000     -75.08580000
C      -45.97840000     -34.73180000     -74.42530000
C      -45.36600000     -35.78940000     -73.71560000
C      -43.95710000     -35.85310000     -73.48210000
C      -43.18600000     -34.92150000     -74.13280000
C      -43.72910000     -33.93770000     -74.96900000
H      -45.56730000     -33.07970000     -75.72890000
H      -46.03670000     -36.51830000     -73.28920000
H      -42.05630000     -34.97850000     -74.07750000
H      -43.02980000     -33.35320000     -75.46620000
C      -43.32510000     -36.88530000     -72.60950000
H      -42.33420000     -37.14010000     -72.94290000
H      -43.95580000     -37.74530000     -72.79900000
C      -47.46060000     -34.58360000     -74.49650000
H      -47.78780000     -34.57230000     -75.53840000
H      -48.01050000     -35.40600000     -73.84990000
S      -43.38660000     -36.54730000     -70.80250000
S      -48.06020000     -32.92170000     -73.80180000
C      -42.79270000     -34.77860000     -70.63070000
H      -42.36120000     -34.66510000     -69.64310000
H      -42.01270000     -34.59160000     -71.39170000
C      -47.18990000     -32.79820000     -72.23370000
H      -46.50770000     -33.67840000     -72.16760000
H      -47.94370000     -32.96650000     -71.42780000
C      -46.39540000     -31.50580000     -72.07440000
H      -45.50800000     -31.65660000     -72.67350000
H      -47.00570000     -30.72230000     -72.55290000
C      -43.87090000     -33.69310000     -70.91230000
H      -44.62900000     -34.17690000     -71.53360000
H      -43.43190000     -32.80410000     -71.52690000
C      -44.47480000     -33.04150000     -69.66680000
C      -44.06630000     -33.34520000     -68.36810000
C      -45.47910000     -32.01810000     -69.62830000
H      -43.30160000     -34.05330000     -68.12090000
C      -45.67440000     -31.45330000     -68.34530000
C      -46.28520000     -31.20830000     -70.62070000
C      -47.05770000     -30.21180000     -70.03200000
S      -44.75380000     -32.26030000     -67.12760000
S      -46.77950000     -30.09630000     -68.26330000
H      -47.55550000     -29.37380000     -70.55090000
