40
Properties=species:S:1:pos:R:3 #=T CELL(abcABC):=T 1.889726e+02=T 90.00000=T Traj:=T positionsangstrom=T Step:=T 0=T Bead:=T pbc="F F F"
C      -45.15650000     -33.87700000     -75.23180000
C      -45.80530000     -34.85200000     -74.47460000
C      -45.10550000     -35.68720000     -73.63890000
C      -43.67500000     -35.72320000     -73.66100000
C      -43.05840000     -34.72220000     -74.41780000
C      -43.81900000     -33.81500000     -75.22890000
H      -45.55700000     -33.02710000     -75.85970000
H      -45.69690000     -36.35560000     -72.97990000
H      -42.04300000     -34.70170000     -74.47060000
H      -43.28980000     -32.99280000     -75.74880000
C      -42.95800000     -36.68410000     -72.84560000
H      -41.88810000     -36.49480000     -72.83990000
H      -43.32730000     -37.68360000     -73.12560000
C      -47.38520000     -34.80790000     -74.28470000
H      -47.80400000     -35.27620000     -75.22220000
H      -47.58750000     -35.47200000     -73.49990000
S      -43.51560000     -36.53080000     -71.08400000
S      -48.17140000     -33.18800000     -73.90690000
C      -42.94450000     -34.82190000     -70.66330000
H      -42.38580000     -34.84560000     -69.72090000
H      -42.19010000     -34.54330000     -71.37440000
C      -47.66590000     -33.02020000     -72.11260000
H      -47.23760000     -33.96300000     -71.78240000
H      -48.50340000     -32.69970000     -71.47970000
C      -46.62730000     -31.87070000     -71.88890000
H      -45.75130000     -32.14040000     -72.51640000
H      -47.15390000     -31.00820000     -72.35650000
C      -44.16950000     -33.83550000     -70.69610000
H      -45.17820000     -34.42880000     -70.78500000
H      -44.19610000     -33.26560000     -71.59160000
C      -44.38650000     -32.94200000     -69.48550000
C      -43.83590000     -33.04580000     -68.22290000
C      -45.41360000     -31.88930000     -69.46300000
H      -43.26090000     -33.89100000     -67.88470000
C      -45.54930000     -31.27710000     -68.21990000
C      -46.37150000     -31.42970000     -70.46810000
C      -47.16100000     -30.46430000     -69.92220000
S      -44.51000000     -31.86750000     -67.03840000
S      -46.83290000     -30.10360000     -68.20760000
H      -48.08860000     -30.09880000     -70.33990000
