40
Properties=species:S:1:pos:R:3 #=T CELL(abcABC):=T 1.889726e+02=T 90.00000=T Traj:=T positionsangstrom=T Step:=T 0=T Bead:=T pbc="F F F"
C      -45.05530000     -34.00010000     -75.27300000
C      -45.96110000     -34.45450000     -74.30410000
C      -45.55930000     -35.42860000     -73.39270000
C      -44.23360000     -35.91010000     -73.28260000
C      -43.28190000     -35.26160000     -74.13960000
C      -43.75790000     -34.51730000     -75.26830000
H      -45.49870000     -33.29080000     -76.05850000
H      -46.26120000     -35.65640000     -72.55350000
H      -42.16930000     -35.54250000     -74.15320000
H      -43.05590000     -34.16960000     -75.99330000
C      -43.82230000     -37.00690000     -72.38460000
H      -42.81940000     -37.32190000     -72.59290000
H      -44.45740000     -37.91230000     -72.30130000
C      -47.45280000     -33.94740000     -74.27730000
H      -48.02810000     -34.33220000     -75.04570000
H      -48.01160000     -34.37450000     -73.42960000
S      -43.73530000     -36.47820000     -70.54730000
S      -47.57870000     -32.07190000     -74.24610000
C      -42.75150000     -34.96080000     -70.57200000
H      -42.11210000     -34.84590000     -69.65760000
H      -41.90870000     -35.09440000     -71.34140000
C      -47.26670000     -31.76400000     -72.50330000
H      -47.61440000     -32.64970000     -71.95350000
H      -47.90390000     -30.88740000     -72.22930000
C      -45.84720000     -31.35120000     -72.09220000
H      -45.12890000     -32.10340000     -72.30200000
H      -45.54620000     -30.50450000     -72.60950000
C      -43.58460000     -33.69590000     -70.83200000
H      -44.30040000     -33.91770000     -71.68550000
H      -42.96970000     -32.94210000     -71.27170000
C      -44.40540000     -33.23760000     -69.68560000
C      -44.34150000     -33.80160000     -68.41900000
C      -45.38650000     -32.14290000     -69.64170000
H      -43.72910000     -34.67720000     -68.10540000
C      -45.69140000     -31.76710000     -68.32940000
C      -45.90760000     -31.23060000     -70.59190000
C      -46.64710000     -30.23360000     -70.03150000
S      -45.10770000     -32.89160000     -67.15570000
S      -46.73170000     -30.36890000     -68.24850000
H      -47.29580000     -29.45770000     -70.41070000
