40
Properties=species:S:1:pos:R:3 #=T CELL(abcABC):=T 1.889726e+02=T 90.00000=T Traj:=T positionsangstrom=T Step:=T 0=T Bead:=T pbc="F F F"
C      -45.04890000     -33.84060000     -75.01350000
C      -45.98970000     -34.50370000     -74.20430000
C      -45.53330000     -35.49670000     -73.33210000
C      -44.24250000     -35.98510000     -73.35200000
C      -43.30410000     -35.38850000     -74.21530000
C      -43.73510000     -34.25400000     -74.99430000
H      -45.43420000     -33.03560000     -75.70110000
H      -46.39710000     -35.98300000     -72.83680000
H      -42.31360000     -35.77290000     -74.22350000
H      -43.00720000     -33.70860000     -75.57660000
C      -43.73130000     -37.07110000     -72.39220000
H      -42.80590000     -37.51080000     -72.80480000
H      -44.47040000     -37.88100000     -72.31860000
C      -47.47300000     -34.18670000     -74.37840000
H      -47.72620000     -34.39280000     -75.42230000
H      -47.98700000     -34.73240000     -73.58900000
S      -43.77730000     -36.33150000     -70.63260000
S      -47.72860000     -32.38420000     -74.26440000
C      -42.70680000     -34.78340000     -70.84400000
H      -42.04040000     -34.74590000     -70.01620000
H      -42.24070000     -34.95220000     -71.78720000
C      -47.39040000     -31.95540000     -72.42730000
H      -47.70810000     -32.88170000     -71.90100000
H      -48.10640000     -31.21290000     -72.16430000
C      -45.98050000     -31.39280000     -72.08520000
H      -45.17190000     -32.05840000     -72.37130000
H      -45.96540000     -30.38800000     -72.64000000
C      -43.55790000     -33.53260000     -70.87120000
H      -44.29340000     -33.51770000     -71.60530000
H      -42.87150000     -32.61510000     -71.14340000
C      -44.26360000     -33.14980000     -69.62410000
C      -44.17680000     -33.73320000     -68.39260000
C      -45.28100000     -32.05720000     -69.58090000
H      -43.42080000     -34.42160000     -68.06970000
C      -45.67430000     -31.72110000     -68.28570000
C      -45.88160000     -31.20600000     -70.59200000
C      -46.48170000     -30.13220000     -70.04860000
S      -45.19280000     -32.93380000     -67.14960000
S      -46.64230000     -30.30130000     -68.26490000
H      -46.85770000     -29.24580000     -70.51850000
