40
Properties=species:S:1:pos:R:3 #=T CELL(abcABC):=T 1.889726e+02=T 90.00000=T Traj:=T positionsangstrom=T Step:=T 0=T Bead:=T pbc="F F F"
C      -45.17190000     -33.63950000     -75.18500000
C      -45.77410000     -34.57870000     -74.32840000
C      -44.91470000     -35.34760000     -73.53140000
C      -43.53830000     -35.15420000     -73.51050000
C      -42.96420000     -34.14950000     -74.36560000
C      -43.80290000     -33.45280000     -75.22580000
H      -45.71890000     -33.04440000     -75.85900000
H      -45.28890000     -36.22710000     -72.98330000
H      -41.88060000     -33.81790000     -74.27910000
H      -43.22370000     -32.74470000     -75.75530000
C      -42.55760000     -36.07250000     -72.71090000
H      -41.70370000     -35.43820000     -72.28580000
H      -42.07130000     -36.94610000     -73.25710000
C      -47.22570000     -34.83610000     -74.33930000
H      -47.59550000     -35.20080000     -75.28840000
H      -47.33820000     -35.67130000     -73.67790000
S      -43.30590000     -36.81050000     -71.19710000
S      -48.29600000     -33.37940000     -73.91080000
C      -43.57290000     -35.32870000     -70.07570000
H      -44.01040000     -35.76880000     -69.18230000
H      -42.53060000     -34.99710000     -69.80600000
C      -47.97950000     -33.22990000     -72.13560000
H      -47.53680000     -34.12040000     -71.64620000
H      -48.87450000     -33.05110000     -71.61880000
C      -46.98660000     -32.08270000     -71.90360000
H      -46.10900000     -32.36900000     -72.48970000
H      -47.43630000     -31.27300000     -72.46380000
C      -44.37950000     -34.19680000     -70.59460000
H      -45.34530000     -34.48520000     -70.86280000
H      -43.95440000     -33.74210000     -71.47680000
C      -44.48390000     -33.05410000     -69.59150000
C      -43.71030000     -32.95550000     -68.44040000
C      -45.51510000     -32.01160000     -69.57900000
H      -42.92840000     -33.61760000     -68.15910000
C      -45.45630000     -31.24860000     -68.35470000
C      -46.62950000     -31.63950000     -70.45260000
C      -47.41670000     -30.69380000     -69.82730000
S      -44.16550000     -31.70420000     -67.28870000
S      -46.87110000     -30.21360000     -68.19860000
H      -48.22550000     -30.10610000     -70.31610000
