40
Properties=species:S:1:pos:R:3 #=T CELL(abcABC):=T 1.889726e+02=T 90.00000=T Traj:=T positionsangstrom=T Step:=T 0=T Bead:=T pbc="F F F"
C      -49.19350000     -34.84270000     -71.25700000
C      -48.44230000     -34.42210000     -70.11240000
C      -48.06450000     -33.04190000     -69.97620000
C      -48.46260000     -32.11030000     -70.98450000
C      -49.15190000     -32.60260000     -72.12840000
C      -49.45010000     -33.98150000     -72.31050000
H      -49.23890000     -35.94220000     -71.33970000
H      -47.40980000     -32.72570000     -69.18430000
H      -49.51560000     -31.85870000     -72.84290000
H      -50.07670000     -34.22120000     -73.09510000
C      -48.08110000     -30.62930000     -70.95810000
H      -48.94060000     -30.13410000     -70.52320000
H      -47.90580000     -30.30950000     -71.93690000
C      -48.01090000     -35.43430000     -69.10290000
H      -48.66770000     -35.31790000     -68.21140000
H      -48.29200000     -36.45580000     -69.52780000
S      -46.49560000     -30.32860000     -69.98500000
S      -46.30030000     -35.44660000     -68.41620000
C      -45.37630000     -31.02860000     -71.29720000
H      -45.78710000     -31.90510000     -71.73620000
H      -45.16100000     -30.29170000     -72.09280000
C      -45.03450000     -35.28410000     -69.75160000
H      -44.46910000     -36.22030000     -69.70540000
H      -44.44140000     -34.56470000     -69.25800000
C      -45.36480000     -34.94520000     -71.19690000
H      -45.89210000     -35.77070000     -71.69080000
H      -45.90810000     -33.93220000     -71.21760000
C      -44.14020000     -31.50330000     -70.58440000
H      -44.45860000     -32.25630000     -69.88260000
H      -43.65400000     -30.66510000     -70.14650000
C      -43.18790000     -32.18290000     -71.52500000
C      -42.08940000     -31.51870000     -71.96820000
C      -43.24890000     -33.52010000     -72.10430000
H      -41.75940000     -30.49940000     -71.71490000
C      -42.20700000     -33.74000000     -73.07870000
C      -44.06830000     -34.71880000     -72.07810000
C      -43.62270000     -35.67920000     -72.87630000
S      -41.30580000     -32.25440000     -73.38660000
S      -42.12700000     -35.41300000     -73.63970000
H      -43.97570000     -36.71580000     -72.98800000
