40
Properties=species:S:1:pos:R:3 #=T CELL(abcABC):=T 1.889726e+02=T 90.00000=T Traj:=T positionsangstrom=T Step:=T 0=T Bead:=T pbc="F F F"
C      -45.66890000     -33.60590000     -75.03350000
C      -46.04960000     -34.69310000     -74.23790000
C      -45.03840000     -35.46880000     -73.63590000
C      -43.62220000     -35.14570000     -73.74440000
C      -43.31000000     -34.05160000     -74.51050000
C      -44.33320000     -33.29630000     -75.16020000
H      -46.40680000     -32.95630000     -75.47420000
H      -45.30730000     -36.29700000     -72.95210000
H      -42.43930000     -33.47920000     -74.41060000
H      -43.96160000     -32.46530000     -75.74070000
C      -42.54440000     -35.95020000     -73.04710000
H      -41.63250000     -35.42650000     -73.10200000
H      -42.43680000     -36.94260000     -73.57400000
C      -47.50510000     -35.08960000     -74.19870000
H      -47.89440000     -35.04350000     -75.22190000
H      -47.50780000     -36.15410000     -73.84500000
S      -42.91730000     -36.47650000     -71.31080000
S      -48.60610000     -34.10760000     -73.11950000
C      -43.16980000     -34.88490000     -70.50710000
H      -42.78700000     -34.98070000     -69.48940000
H      -42.67010000     -34.01560000     -71.02230000
C      -47.57280000     -33.35810000     -71.76250000
H      -47.22390000     -34.19970000     -71.11520000
H      -48.32600000     -32.96930000     -71.15040000
C      -46.67790000     -32.18560000     -72.00470000
H      -45.70820000     -32.54340000     -72.43560000
H      -47.10090000     -31.45310000     -72.75330000
C      -44.62360000     -34.43970000     -70.30330000
H      -45.24110000     -35.31430000     -69.92390000
H      -45.15300000     -34.26030000     -71.29690000
C      -44.85390000     -33.37010000     -69.25300000
C      -44.33710000     -33.30850000     -68.00120000
C      -45.67610000     -32.15190000     -69.43600000
H      -43.64940000     -34.04890000     -67.47870000
C      -45.47550000     -31.14260000     -68.47620000
C      -46.27540000     -31.50110000     -70.69830000
C      -46.56230000     -30.19820000     -70.51040000
S      -44.64990000     -31.86390000     -67.04950000
S      -45.98930000     -29.61430000     -68.95180000
H      -46.97220000     -29.49400000     -71.22670000
