40
Properties=species:S:1:pos:R:3 #=T CELL(abcABC):=T 1.889726e+02=T 90.00000=T Traj:=T positionsangstrom=T Step:=T 0=T Bead:=T pbc="F F F"
C      -45.83860000     -34.04040000     -75.07550000
C      -46.10030000     -34.92360000     -73.98160000
C      -45.00960000     -35.47770000     -73.29690000
C      -43.67650000     -35.12200000     -73.64470000
C      -43.52030000     -34.29230000     -74.76230000
C      -44.58670000     -33.79840000     -75.45880000
H      -46.64460000     -33.74670000     -75.70140000
H      -45.20970000     -36.16710000     -72.48480000
H      -42.39010000     -34.07380000     -74.96380000
H      -44.51670000     -33.12210000     -76.32250000
C      -42.40540000     -35.63110000     -72.96930000
H      -41.77570000     -34.77960000     -72.72300000
H      -41.81220000     -36.33490000     -73.52860000
C      -47.52170000     -35.31680000     -73.69430000
H      -47.99800000     -35.87230000     -74.56310000
H      -47.62190000     -36.07930000     -72.93770000
S      -42.86830000     -36.43720000     -71.34880000
S      -48.51560000     -33.77710000     -73.35750000
C      -43.08510000     -34.94330000     -70.34920000
H      -42.57270000     -35.17690000     -69.35060000
H      -42.56660000     -34.13270000     -70.79370000
C      -47.86380000     -33.01810000     -71.85310000
H      -47.73820000     -33.66170000     -71.05930000
H      -48.60070000     -32.22590000     -71.60090000
C      -46.48080000     -32.26190000     -72.04000000
H      -45.69950000     -33.00030000     -72.42330000
H      -46.58350000     -31.36770000     -72.67950000
C      -44.62790000     -34.52710000     -70.05850000
H      -45.02590000     -35.47590000     -69.61120000
H      -44.99470000     -34.39820000     -71.06400000
C      -44.76890000     -33.31100000     -69.23790000
C      -44.27410000     -33.26260000     -67.94770000
C      -45.39810000     -32.08660000     -69.60140000
H      -43.87920000     -34.10780000     -67.38500000
C      -45.54240000     -31.21860000     -68.42490000
C      -46.20240000     -31.57600000     -70.69140000
C      -46.65860000     -30.30610000     -70.50840000
S      -44.48260000     -31.70030000     -67.19100000
S      -46.18280000     -29.62360000     -68.93380000
H      -47.23100000     -29.83580000     -71.32550000
