40
Properties=species:S:1:pos:R:3 #=T CELL(abcABC):=T 1.889726e+02=T 90.00000=T Traj:=T positionsangstrom=T Step:=T 0=T Bead:=T pbc="F F F"
C      -45.32430000     -33.32950000     -75.03200000
C      -45.81590000     -34.48060000     -74.36840000
C      -44.91750000     -35.22580000     -73.52210000
C      -43.57380000     -34.81670000     -73.40980000
C      -43.11780000     -33.61500000     -74.03100000
C      -44.03360000     -32.86600000     -74.75120000
H      -45.91160000     -32.86280000     -75.82140000
H      -45.42110000     -36.02870000     -72.96380000
H      -42.07630000     -33.34140000     -73.86130000
H      -43.80420000     -31.94460000     -75.26730000
C      -42.59880000     -35.69370000     -72.68870000
H      -41.82500000     -35.06640000     -72.20650000
H      -42.15220000     -36.40610000     -73.30930000
C      -47.29340000     -34.95560000     -74.49070000
H      -47.39510000     -35.25620000     -75.60170000
H      -47.37070000     -35.86460000     -73.94730000
S      -43.16620000     -36.77170000     -71.20900000
S      -48.55250000     -33.76020000     -73.77990000
C      -43.33420000     -35.45210000     -69.96130000
H      -43.36120000     -35.92710000     -68.91330000
H      -42.35690000     -34.94460000     -69.94130000
C      -47.93550000     -33.54980000     -72.04850000
H      -47.57270000     -34.57160000     -71.72990000
H      -48.78660000     -33.10680000     -71.44010000
C      -46.73930000     -32.58710000     -71.86830000
H      -45.78090000     -33.14690000     -72.07600000
H      -46.65140000     -31.76950000     -72.58770000
C      -44.57150000     -34.54790000     -70.20510000
H      -45.45840000     -35.29670000     -70.26750000
H      -44.41980000     -34.10000000     -71.15840000
C      -44.76190000     -33.35330000     -69.21420000
C      -43.97850000     -33.23640000     -68.09250000
C      -45.56360000     -32.18790000     -69.47730000
H      -43.18200000     -34.02020000     -67.73800000
C      -45.41080000     -31.21950000     -68.52230000
C      -46.60040000     -31.93100000     -70.50680000
C      -47.31090000     -30.80530000     -70.17240000
S      -44.09750000     -31.55730000     -67.45280000
S      -46.52760000     -29.91140000     -68.88250000
H      -48.06740000     -30.21650000     -70.70030000
