40
Properties=species:S:1:pos:R:3 #=T CELL(abcABC):=T 1.889726e+02=T 90.00000=T Traj:=T positionsangstrom=T Step:=T 0=T Bead:=T pbc="F F F"
C      -45.48000000     -33.33800000     -74.75780000
C      -45.88650000     -34.58890000     -74.24700000
C      -44.95680000     -35.39560000     -73.58490000
C      -43.64330000     -34.94160000     -73.43180000
C      -43.25240000     -33.57350000     -73.73480000
C      -44.16160000     -32.85750000     -74.49580000
H      -46.22590000     -32.69280000     -75.07910000
H      -45.27330000     -36.45870000     -73.27780000
H      -42.28220000     -33.26260000     -73.52770000
H      -43.95000000     -31.85580000     -74.82710000
C      -42.63070000     -35.88150000     -72.89230000
H      -41.72290000     -35.36980000     -72.93440000
H      -42.53720000     -36.75830000     -73.59060000
C      -47.31280000     -35.02140000     -74.47570000
H      -47.69630000     -35.01160000     -75.48600000
H      -47.44440000     -36.07700000     -74.07820000
S      -42.99160000     -36.65540000     -71.26810000
S      -48.56590000     -33.99130000     -73.62360000
C      -43.20250000     -35.22220000     -70.04610000
H      -42.98810000     -35.53440000     -69.02170000
H      -42.55960000     -34.40250000     -70.34210000
C      -48.01290000     -33.51380000     -71.86300000
H      -47.69400000     -34.41700000     -71.32490000
H      -48.83150000     -33.10850000     -71.33160000
C      -46.78850000     -32.43250000     -71.97280000
H      -45.99190000     -32.87340000     -72.55240000
H      -47.24850000     -31.70590000     -72.56290000
C      -44.60800000     -34.65640000     -70.02430000
H      -45.27120000     -35.32050000     -69.47350000
H      -45.07750000     -34.49840000     -71.03870000
C      -44.64620000     -33.28900000     -69.37320000
C      -43.90290000     -33.10100000     -68.24920000
C      -45.57940000     -32.22570000     -69.71080000
H      -43.48850000     -33.98640000     -67.60710000
C      -45.56630000     -31.33230000     -68.61800000
C      -46.39820000     -31.69560000     -70.78340000
C      -46.83150000     -30.40800000     -70.54420000
S      -44.34620000     -31.68480000     -67.32820000
S      -46.37230000     -29.82940000     -68.95460000
H      -47.71770000     -29.94990000     -70.96560000
