40
Properties=species:S:1:pos:R:3 #=T CELL(abcABC):=T 1.889726e+02=T 90.00000=T Traj:=T positionsangstrom=T Step:=T 0=T Bead:=T pbc="F F F"
C      -45.75050000     -33.79780000     -75.16790000
C      -46.11760000     -34.75670000     -74.22190000
C      -45.01740000     -35.43580000     -73.52860000
C      -43.67150000     -35.15830000     -73.74560000
C      -43.41420000     -34.08430000     -74.65810000
C      -44.42310000     -33.52260000     -75.40290000
H      -46.45230000     -33.22480000     -75.75470000
H      -45.30440000     -36.23250000     -72.89440000
H      -42.35040000     -33.92410000     -74.93080000
H      -44.16300000     -32.84710000     -76.22470000
C      -42.54690000     -35.92370000     -73.03440000
H      -41.56210000     -35.32770000     -73.21440000
H      -42.34040000     -36.87990000     -73.50650000
C      -47.48620000     -35.19330000     -73.75960000
H      -47.96630000     -35.53510000     -74.63900000
H      -47.50920000     -35.97430000     -72.98620000
S      -42.86550000     -36.41790000     -71.27780000
S      -48.56870000     -33.82380000     -73.24340000
C      -43.20680000     -34.85990000     -70.25420000
H      -42.76900000     -35.12690000     -69.29980000
H      -42.63560000     -33.98690000     -70.63510000
C      -47.71710000     -33.41560000     -71.62340000
H      -47.24990000     -34.32490000     -71.14200000
H      -48.51180000     -32.99740000     -70.98730000
C      -46.63480000     -32.35170000     -71.93400000
H      -45.85440000     -32.82760000     -72.42300000
H      -47.08810000     -31.70900000     -72.69840000
C      -44.71460000     -34.58570000     -70.11530000
H      -45.30130000     -35.27610000     -69.60880000
H      -45.18630000     -34.33530000     -71.06580000
C      -44.78270000     -33.31650000     -69.30320000
C      -44.40430000     -33.32340000     -68.02010000
C      -45.38040000     -32.07650000     -69.62110000
H      -44.05220000     -34.21360000     -67.42760000
C      -45.32080000     -31.13260000     -68.61020000
C      -46.15860000     -31.53400000     -70.71450000
C      -46.54550000     -30.24150000     -70.49180000
S      -44.52570000     -31.74570000     -67.16510000
S      -46.16830000     -29.67330000     -68.91640000
H      -47.25210000     -29.73170000     -71.06930000
