40
Properties=species:S:1:pos:R:3 #=T CELL(abcABC):=T 1.889726e+02=T 90.00000=T Traj:=T positionsangstrom=T Step:=T 0=T Bead:=T pbc="F F F"
C      -43.87940000     -36.29170000     -69.39550000
C      -44.61700000     -35.18280000     -69.16360000
C      -45.77400000     -34.89990000     -69.91580000
C      -46.23950000     -35.86460000     -70.86220000
C      -45.39570000     -36.97170000     -71.13440000
C      -44.22800000     -37.16610000     -70.41630000
H      -42.99230000     -36.30360000     -68.77200000
H      -46.35690000     -33.99560000     -69.72490000
H      -45.75480000     -37.75830000     -71.84720000
H      -43.64120000     -38.04890000     -70.57830000
C      -47.43570000     -35.65560000     -71.75990000
H      -48.13140000     -34.86760000     -71.40480000
H      -48.03360000     -36.57990000     -71.83250000
C      -44.13420000     -34.16120000     -68.17520000
H      -44.93530000     -33.38160000     -68.14290000
H      -44.08490000     -34.57600000     -67.17520000
S      -46.87990000     -35.46500000     -73.56530000
S      -42.47340000     -33.43970000     -68.79810000
C      -45.08470000     -34.76740000     -73.44980000
H      -44.85910000     -34.61570000     -72.39200000
H      -44.49660000     -35.55890000     -73.90730000
C      -42.53320000     -33.57940000     -70.67540000
H      -43.22360000     -34.40250000     -70.86030000
H      -41.53390000     -33.78090000     -70.98390000
C      -42.87590000     -32.28040000     -71.34830000
H      -42.15470000     -31.58370000     -70.98490000
H      -42.73970000     -32.43060000     -72.41580000
C      -44.96800000     -33.39230000     -74.17550000
H      -45.35110000     -33.44460000     -75.21490000
H      -43.92490000     -33.03790000     -74.27780000
C      -45.79670000     -32.34490000     -73.35850000
C      -47.03200000     -32.06000000     -73.77900000
C      -45.47460000     -31.64090000     -72.13750000
H      -47.33680000     -32.33150000     -74.76180000
C      -46.47180000     -30.77110000     -71.72130000
C      -44.31900000     -31.62760000     -71.17160000
C      -44.58400000     -30.79390000     -70.07910000
S      -47.79490000     -30.91290000     -72.87080000
S      -46.21750000     -29.98810000     -70.16960000
H      -43.82510000     -30.29420000     -69.38640000
