40
Properties=species:S:1:pos:R:3 #=T CELL(abcABC):=T 1.889726e+02=T 90.00000=T Traj:=T positionsangstrom=T Step:=T 0=T Bead:=T pbc="F F F"
C      -44.26620000     -35.97630000     -68.92310000
C      -44.66750000     -34.70030000     -69.32680000
C      -45.64090000     -34.60990000     -70.32140000
C      -46.31860000     -35.73160000     -70.84690000
C      -45.82410000     -37.00710000     -70.44640000
C      -44.91770000     -37.07820000     -69.44200000
H      -43.41010000     -36.07080000     -68.25310000
H      -46.00910000     -33.65190000     -70.72040000
H      -46.21010000     -37.88440000     -70.93260000
H      -44.48150000     -38.06680000     -69.14600000
C      -47.28310000     -35.66810000     -72.07450000
H      -47.71530000     -34.64660000     -72.27160000
H      -48.08590000     -36.47160000     -72.15370000
C      -44.07410000     -33.39900000     -68.88940000
H      -44.62580000     -32.53220000     -69.27170000
H      -43.90460000     -33.38230000     -67.81240000
S      -46.37980000     -35.97930000     -73.75490000
S      -42.31350000     -33.23390000     -69.51530000
C      -45.03700000     -34.84430000     -73.68640000
H      -44.80170000     -34.68230000     -72.59520000
H      -44.27130000     -35.23800000     -74.27140000
C      -42.47370000     -33.36960000     -71.28500000
H      -43.24070000     -34.15250000     -71.50770000
H      -41.52830000     -33.72160000     -71.68400000
C      -42.86190000     -32.02420000     -72.09930000
H      -42.00890000     -31.32000000     -72.06250000
H      -43.04360000     -32.22500000     -73.13160000
C      -45.34350000     -33.37390000     -74.14710000
H      -45.89220000     -33.35580000     -75.13360000
H      -44.42940000     -32.82030000     -74.30760000
C      -46.13810000     -32.65580000     -73.02750000
C      -47.53270000     -32.57860000     -72.94950000
C      -45.52740000     -31.73050000     -72.07820000
H      -48.27070000     -32.96230000     -73.65380000
C      -46.49600000     -30.97670000     -71.35080000
C      -44.15840000     -31.39140000     -71.62770000
C      -44.17740000     -30.40550000     -70.61380000
S      -48.12300000     -31.49500000     -71.72320000
S      -45.78170000     -29.94120000     -70.11330000
H      -43.28580000     -29.96700000     -70.23730000
