40
Properties=species:S:1:pos:R:3 #=T CELL(abcABC):=T 1.889726e+02=T 90.00000=T Traj:=T positionsangstrom=T Step:=T 0=T Bead:=T pbc="F F F"
C      -44.09890000     -36.11540000     -68.77520000
C      -44.69610000     -34.90510000     -69.23590000
C      -45.63330000     -34.94490000     -70.26400000
C      -46.05590000     -36.18030000     -70.86020000
C      -45.44150000     -37.35750000     -70.44640000
C      -44.44860000     -37.29560000     -69.40890000
H      -43.39060000     -36.11040000     -67.96440000
H      -46.08600000     -34.04920000     -70.62510000
H      -45.55400000     -38.33050000     -70.97160000
H      -44.02430000     -38.21660000     -69.12900000
C      -47.07020000     -36.06120000     -72.00790000
H      -47.61630000     -35.13370000     -71.68020000
H      -47.82650000     -36.93310000     -72.02870000
C      -44.20380000     -33.49860000     -68.73840000
H      -44.91030000     -32.68610000     -69.03550000
H      -44.21350000     -33.38000000     -67.62440000
S      -46.36620000     -35.98350000     -73.67070000
S      -42.53430000     -33.23070000     -69.30800000
C      -44.87900000     -34.79130000     -73.61480000
H      -44.61310000     -34.82950000     -72.57210000
H      -44.07960000     -35.29800000     -74.23840000
C      -42.68010000     -33.42760000     -71.20190000
H      -43.48270000     -34.07560000     -71.38390000
H      -41.83080000     -33.92750000     -71.64720000
C      -42.87310000     -32.12040000     -71.96100000
H      -42.02720000     -31.48040000     -71.89680000
H      -43.04450000     -32.31160000     -73.04010000
C      -45.38890000     -33.39940000     -74.04620000
H      -45.97810000     -33.44220000     -74.97470000
H      -44.50200000     -32.78420000     -74.43310000
C      -46.20410000     -32.52910000     -73.09770000
C      -47.58780000     -32.25630000     -73.18760000
C      -45.55150000     -31.63380000     -72.11200000
H      -48.34830000     -32.66190000     -73.79730000
C      -46.47940000     -30.77720000     -71.58080000
C      -44.21430000     -31.40890000     -71.55840000
C      -44.30200000     -30.48510000     -70.52840000
S      -48.10690000     -30.91940000     -72.15950000
S      -45.94660000     -29.80770000     -70.22920000
H      -43.44440000     -30.17110000     -69.89190000
