40
Properties=species:S:1:pos:R:3 #=T CELL(abcABC):=T 1.889726e+02=T 90.00000=T Traj:=T positionsangstrom=T Step:=T 0=T Bead:=T pbc="F F F"
C      -44.32860000     -35.92350000     -68.79410000
C      -44.71770000     -34.67630000     -69.31230000
C      -45.69660000     -34.75470000     -70.39020000
C      -46.16430000     -35.93000000     -70.96340000
C      -45.59790000     -37.13090000     -70.54040000
C      -44.64850000     -37.11490000     -69.46240000
H      -43.67640000     -36.06410000     -67.95280000
H      -46.11620000     -33.81760000     -70.73780000
H      -45.86280000     -38.05280000     -71.01990000
H      -44.19440000     -38.05540000     -69.20280000
C      -47.18640000     -35.89510000     -72.08770000
H      -47.68160000     -34.95390000     -72.07990000
H      -47.94250000     -36.59110000     -72.03590000
C      -44.11990000     -33.45780000     -68.73320000
H      -44.77560000     -32.62740000     -68.98260000
H      -43.98940000     -33.53850000     -67.65130000
S      -46.35670000     -36.24330000     -73.76750000
S      -42.36710000     -33.26610000     -69.37930000
C      -45.08140000     -34.78180000     -73.90810000
H      -44.52860000     -34.79370000     -72.99120000
H      -44.27160000     -35.15190000     -74.62310000
C      -42.58720000     -33.37100000     -71.16140000
H      -43.41590000     -34.04970000     -71.32600000
H      -41.64930000     -33.81040000     -71.58700000
C      -42.86800000     -32.01080000     -71.88400000
H      -41.99850000     -31.33640000     -71.73670000
H      -42.88220000     -32.29050000     -72.93810000
C      -45.44660000     -33.38480000     -74.14700000
H      -46.05000000     -33.35750000     -75.04420000
H      -44.53160000     -32.84740000     -74.43860000
C      -46.13140000     -32.57790000     -73.07420000
C      -47.49520000     -32.37650000     -73.15800000
C      -45.54960000     -31.76550000     -71.91210000
H      -48.18040000     -32.91750000     -73.79080000
C      -46.51600000     -30.92100000     -71.34150000
C      -44.16510000     -31.40170000     -71.47340000
C      -44.19850000     -30.37960000     -70.54140000
S      -48.17610000     -31.26150000     -71.91280000
S      -45.79460000     -29.72020000     -70.16880000
H      -43.25060000     -29.96830000     -70.12430000
