40
Properties=species:S:1:pos:R:3 #=T CELL(abcABC):=T 1.889726e+02=T 90.00000=T Traj:=T positionsangstrom=T Step:=T 0=T Bead:=T pbc="F F F"
C      -45.10090000     -34.45980000     -74.79940000
C      -45.29330000     -35.44490000     -73.78960000
C      -44.22560000     -35.75170000     -72.97630000
C      -42.99390000     -35.10030000     -73.09830000
C      -42.79620000     -34.09200000     -73.99440000
C      -43.84780000     -33.91300000     -74.96300000
H      -45.87720000     -34.18010000     -75.44990000
H      -44.28830000     -36.52600000     -72.27570000
H      -41.94770000     -33.43360000     -73.94980000
H      -43.72710000     -33.16640000     -75.76450000
C      -41.89650000     -35.50810000     -72.17400000
H      -40.92920000     -35.01620000     -72.40590000
H      -41.68520000     -36.58640000     -72.46770000
C      -46.58010000     -36.04450000     -73.50290000
H      -46.81020000     -36.83560000     -74.20910000
H      -46.47260000     -36.57010000     -72.50170000
S      -42.39170000     -35.74900000     -70.42050000
S      -48.04990000     -34.91410000     -73.54030000
C      -43.09450000     -34.11580000     -69.90170000
H      -42.57730000     -33.84920000     -69.00720000
H      -42.91220000     -33.30920000     -70.59070000
C      -47.69050000     -33.75560000     -72.19170000
H      -47.65890000     -34.19160000     -71.18620000
H      -48.57510000     -33.10610000     -72.07790000
C      -46.52070000     -32.85850000     -72.33590000
H      -45.53790000     -33.15470000     -72.29660000
H      -46.52750000     -32.33710000     -73.24960000
C      -44.63660000     -34.25320000     -69.67080000
H      -44.76410000     -35.10160000     -69.01040000
H      -45.13820000     -34.61950000     -70.61620000
C      -45.18630000     -32.91570000     -69.22310000
C      -44.91140000     -32.48280000     -67.97470000
C      -45.90030000     -31.88930000     -69.93660000
H      -44.30540000     -33.02820000     -67.17580000
C      -46.31270000     -30.87640000     -69.09970000
C      -46.49450000     -31.76650000     -71.23690000
C      -47.20620000     -30.57960000     -71.43200000
S      -45.60410000     -30.91610000     -67.54460000
S      -47.24850000     -29.64730000     -69.93630000
H      -47.76380000     -30.19710000     -72.28980000
