40
Properties=species:S:1:pos:R:3 #=T CELL(abcABC):=T 1.889726e+02=T 90.00000=T Traj:=T positionsangstrom=T Step:=T 0=T Bead:=T pbc="F F F"
C      -46.97230000     -32.51460000     -67.96030000
C      -47.41750000     -33.64380000     -68.68550000
C      -48.17200000     -33.45530000     -69.85680000
C      -48.31900000     -32.17530000     -70.38790000
C      -47.87400000     -31.03350000     -69.62580000
C      -47.34610000     -31.21420000     -68.38320000
H      -46.49770000     -32.60660000     -66.96000000
H      -48.51790000     -34.36830000     -70.35320000
H      -48.09030000     -30.07240000     -69.95050000
H      -47.00810000     -30.34530000     -67.77430000
C      -49.07920000     -31.96280000     -71.66910000
H      -49.30350000     -30.91950000     -71.77700000
H      -50.01680000     -32.55540000     -71.73230000
C      -47.32980000     -35.03980000     -68.17120000
H      -46.51700000     -35.07200000     -67.44130000
H      -48.24080000     -35.31380000     -67.68540000
S      -48.10480000     -32.38240000     -73.18300000
S      -46.86190000     -36.37940000     -69.39980000
C      -46.33770000     -31.98570000     -72.87130000
H      -46.24850000     -30.90970000     -72.90680000
H      -46.13530000     -32.35400000     -71.84020000
C      -45.14010000     -35.96530000     -69.99210000
H      -44.79800000     -36.87660000     -70.41600000
H      -44.62720000     -35.68160000     -68.99940000
C      -45.07730000     -34.82130000     -70.97080000
H      -45.62950000     -35.04270000     -71.85040000
H      -45.62800000     -34.04010000     -70.50290000
C      -45.58580000     -32.86740000     -73.85630000
H      -45.75850000     -32.63780000     -74.89020000
H      -45.93100000     -33.88900000     -73.80060000
C      -44.12160000     -32.77230000     -73.56810000
C      -43.28180000     -32.01080000     -74.30470000
C      -43.39250000     -33.43670000     -72.40970000
H      -43.42750000     -31.55530000     -75.27360000
C      -42.02790000     -33.11070000     -72.45140000
C      -43.65370000     -34.39340000     -71.36700000
C      -42.50750000     -34.87670000     -70.79480000
S      -41.58070000     -32.06560000     -73.77790000
S      -41.03800000     -34.07340000     -71.39130000
H      -42.45240000     -35.69720000     -70.06680000
