40
Properties=species:S:1:pos:R:3 #=T CELL(abcABC):=T 1.889726e+02=T 90.00000=T Traj:=T positionsangstrom=T Step:=T 0=T Bead:=T pbc="F F F"
C      -43.62270000     -36.33260000     -69.44660000
C      -44.19780000     -35.06090000     -69.49100000
C      -45.42220000     -34.91190000     -70.24160000
C      -46.01630000     -35.97690000     -70.85120000
C      -45.32800000     -37.20300000     -70.79570000
C      -44.22290000     -37.43240000     -69.98820000
H      -42.73560000     -36.40080000     -68.78530000
H      -45.76590000     -33.92270000     -70.26100000
H      -45.79500000     -38.04110000     -71.21360000
H      -43.70830000     -38.41280000     -70.01480000
C      -47.31720000     -35.84300000     -71.60330000
H      -47.92950000     -34.99250000     -71.11280000
H      -47.99550000     -36.78070000     -71.42760000
C      -43.61820000     -33.80600000     -68.90270000
H      -44.42270000     -33.05180000     -68.93290000
H      -43.27290000     -33.91270000     -67.83450000
S      -47.15240000     -35.73980000     -73.44490000
S      -42.12890000     -33.26760000     -69.81630000
C      -45.60910000     -34.80230000     -73.73000000
H      -44.85120000     -35.18680000     -72.96950000
H      -45.21630000     -35.16560000     -74.71530000
C      -42.61460000     -33.44380000     -71.66890000
H      -43.46570000     -34.17080000     -71.74540000
H      -41.74310000     -33.78530000     -72.21900000
C      -42.99280000     -32.15280000     -72.32820000
H      -42.13770000     -31.54440000     -72.21900000
H      -43.09870000     -32.24970000     -73.43300000
C      -45.72780000     -33.25800000     -73.95890000
H      -46.33920000     -33.05750000     -74.81390000
H      -44.79190000     -32.82620000     -74.02640000
C      -46.39180000     -32.39290000     -72.85860000
C      -47.73700000     -32.17250000     -72.80170000
C      -45.63590000     -31.63690000     -71.94600000
H      -48.54750000     -32.71260000     -73.14720000
C      -46.49300000     -30.83690000     -71.16530000
C      -44.25480000     -31.48480000     -71.62650000
C      -44.12520000     -30.55830000     -70.59010000
S      -48.14860000     -30.95230000     -71.60160000
S      -45.70500000     -29.91470000     -69.92550000
H      -43.13400000     -30.32350000     -70.17040000
