40
Properties=species:S:1:pos:R:3 #=T CELL(abcABC):=T 1.889726e+02=T 90.00000=T Traj:=T positionsangstrom=T Step:=T 0=T Bead:=T pbc="F F F"
C      -43.83870000     -36.44910000     -69.32790000
C      -44.10560000     -35.10580000     -69.49550000
C      -45.34150000     -34.75040000     -70.02640000
C      -46.10310000     -35.65240000     -70.76780000
C      -45.77540000     -37.04940000     -70.68450000
C      -44.64110000     -37.46150000     -69.91240000
H      -42.91870000     -36.73310000     -68.83390000
H      -45.62150000     -33.73800000     -69.98320000
H      -46.42460000     -37.73750000     -71.21440000
H      -44.47150000     -38.54750000     -69.70760000
C      -47.41780000     -35.18770000     -71.44660000
H      -47.60750000     -34.18160000     -71.26740000
H      -48.26990000     -35.73910000     -71.13800000
C      -43.13600000     -34.05160000     -68.78420000
H      -43.70940000     -33.28700000     -68.21040000
H      -42.60840000     -34.58070000     -67.99860000
S      -47.33090000     -35.39310000     -73.33360000
S      -41.71880000     -33.42600000     -69.96330000
C      -45.61250000     -34.67870000     -73.63240000
H      -45.20650000     -34.76720000     -72.62210000
H      -45.11940000     -35.34110000     -74.32510000
C      -42.45960000     -33.42340000     -71.66130000
H      -43.30440000     -34.17250000     -71.67420000
H      -41.66330000     -33.71890000     -72.32500000
C      -42.90670000     -31.96860000     -72.15060000
H      -42.11760000     -31.26170000     -71.80330000
H      -43.00400000     -31.89290000     -73.23710000
C      -45.55630000     -33.21030000     -74.14830000
H      -45.85190000     -33.11400000     -75.18400000
H      -44.47000000     -32.92570000     -74.22940000
C      -46.27330000     -32.22720000     -73.23620000
C      -47.65120000     -32.14190000     -73.18040000
C      -45.59830000     -31.57080000     -72.09480000
H      -48.25870000     -32.24770000     -74.05290000
C      -46.54160000     -30.98180000     -71.27280000
C      -44.21800000     -31.56550000     -71.55090000
C      -44.27130000     -30.89310000     -70.30640000
S      -48.20040000     -31.14820000     -71.82860000
S      -45.87230000     -30.32030000     -69.82770000
H      -43.28180000     -30.56990000     -69.75200000
