40
Properties=species:S:1:pos:R:3 #=T CELL(abcABC):=T 1.889726e+02=T 90.00000=T Traj:=T positionsangstrom=T Step:=T 0=T Bead:=T pbc="F F F"
C      -43.60110000     -36.52670000     -69.51860000
C      -44.03450000     -35.16900000     -69.41490000
C      -45.20240000     -34.76780000     -70.08520000
C      -46.09130000     -35.62880000     -70.68530000
C      -45.69220000     -36.96570000     -70.77490000
C      -44.51500000     -37.40520000     -70.13350000
H      -42.73480000     -36.78470000     -68.90730000
H      -45.58830000     -33.70750000     -69.96740000
H      -46.27650000     -37.69260000     -71.32020000
H      -44.23070000     -38.46330000     -70.26730000
C      -47.30550000     -35.17760000     -71.34660000
H      -47.52020000     -34.08620000     -71.08210000
H      -48.20110000     -35.76710000     -71.03790000
C      -43.28870000     -34.09840000     -68.74970000
H      -43.93030000     -33.27850000     -68.57600000
H      -42.80410000     -34.48590000     -67.80670000
S      -47.25070000     -35.36290000     -73.18140000
S      -41.93370000     -33.46160000     -69.93810000
C      -45.62270000     -34.64380000     -73.79260000
H      -44.84920000     -34.88630000     -73.04640000
H      -45.34690000     -35.33520000     -74.65840000
C      -42.66370000     -33.45920000     -71.67830000
H      -43.52620000     -34.14800000     -71.79840000
H      -41.88240000     -33.89580000     -72.35210000
C      -43.06010000     -32.06010000     -72.25420000
H      -42.17380000     -31.41660000     -72.35200000
H      -43.36720000     -32.24520000     -73.30680000
C      -45.67550000     -33.22220000     -74.23550000
H      -46.24510000     -33.11190000     -75.18650000
H      -44.66920000     -32.85450000     -74.42780000
C      -46.30250000     -32.41150000     -73.10860000
C      -47.65720000     -32.12720000     -73.12330000
C      -45.62260000     -31.72600000     -71.99370000
H      -48.40850000     -32.57250000     -73.81750000
C      -46.56510000     -30.98670000     -71.22040000
C      -44.28490000     -31.54440000     -71.59650000
C      -44.21990000     -30.81190000     -70.35960000
S      -48.15130000     -31.04210000     -71.83460000
S      -45.76540000     -30.26610000     -69.78450000
H      -43.34330000     -30.42580000     -69.79810000
