40
Properties=species:S:1:pos:R:3 #=T CELL(abcABC):=T 1.889726e+02=T 90.00000=T Traj:=T positionsangstrom=T Step:=T 0=T Bead:=T pbc="F F F"
C      -44.87360000     -34.64810000     -74.96040000
C      -45.20860000     -35.57090000     -73.93970000
C      -44.25230000     -35.72090000     -72.93290000
C      -42.97340000     -35.13410000     -73.00770000
C      -42.64080000     -34.22390000     -74.04720000
C      -43.69920000     -33.87630000     -74.91480000
H      -45.53820000     -34.49020000     -75.81100000
H      -44.49170000     -36.47660000     -72.11710000
H      -41.66530000     -33.84250000     -74.21580000
H      -43.59820000     -33.11290000     -75.66950000
C      -41.93740000     -35.52030000     -72.03190000
H      -41.08450000     -34.74910000     -72.10080000
H      -41.41590000     -36.45570000     -72.31780000
C      -46.59300000     -36.25540000     -73.80250000
H      -46.82290000     -36.92550000     -74.68960000
H      -46.54570000     -36.90190000     -72.87980000
S      -42.35130000     -35.57630000     -70.19750000
S      -47.92090000     -34.92790000     -73.80530000
C      -43.13100000     -33.97030000     -69.86450000
H      -42.62320000     -33.40940000     -69.06220000
H      -43.10430000     -33.29220000     -70.75290000
C      -47.68820000     -33.93490000     -72.19730000
H      -47.57490000     -34.69900000     -71.45860000
H      -48.67260000     -33.46610000     -72.21650000
C      -46.44280000     -32.94020000     -72.26230000
H      -45.49580000     -33.52150000     -72.00540000
H      -46.39230000     -32.38600000     -73.20220000
C      -44.63820000     -34.16190000     -69.37410000
H      -44.59710000     -34.83000000     -68.46790000
H      -45.24690000     -34.73210000     -70.07010000
C      -45.30940000     -32.83410000     -68.97750000
C      -45.22420000     -32.41990000     -67.70240000
C      -45.95350000     -31.94430000     -69.89050000
H      -44.77130000     -32.84820000     -66.86710000
C      -46.19360000     -30.74340000     -69.22890000
C      -46.55930000     -31.87720000     -71.17190000
C      -47.29870000     -30.76200000     -71.46510000
S      -45.78260000     -30.75370000     -67.49730000
S      -47.26630000     -29.65090000     -70.14840000
H      -47.84080000     -30.47080000     -72.35710000
