40
Properties=species:S:1:pos:R:3 #=T CELL(abcABC):=T 1.889726e+02=T 90.00000=T Traj:=T positionsangstrom=T Step:=T 0=T Bead:=T pbc="F F F"
C      -43.59110000     -36.32730000     -69.87410000
C      -44.32860000     -35.19230000     -69.68680000
C      -45.56060000     -34.98900000     -70.27860000
C      -46.18860000     -36.05500000     -70.94220000
C      -45.53990000     -37.32200000     -70.97310000
C      -44.17890000     -37.41210000     -70.54980000
H      -42.63260000     -36.50180000     -69.46130000
H      -46.13350000     -33.98910000     -70.22680000
H      -45.99740000     -38.15340000     -71.44900000
H      -43.70030000     -38.36250000     -70.65440000
C      -47.50490000     -35.83600000     -71.60690000
H      -47.93280000     -34.85240000     -71.25270000
H      -48.12060000     -36.65620000     -71.55850000
C      -43.53090000     -34.12740000     -69.00090000
H      -44.07430000     -33.18530000     -68.71870000
H      -43.11740000     -34.58640000     -68.10360000
S      -47.37270000     -35.63030000     -73.49410000
S      -42.16650000     -33.42830000     -70.05940000
C      -45.89320000     -34.42340000     -73.79350000
H      -45.09980000     -34.40110000     -72.99340000
H      -45.40790000     -34.76630000     -74.72670000
C      -42.78850000     -33.65860000     -71.82540000
H      -43.51390000     -34.46850000     -71.77380000
H      -41.94460000     -34.15260000     -72.40010000
C      -43.18680000     -32.36030000     -72.54960000
H      -42.27790000     -31.86640000     -72.72910000
H      -43.58000000     -32.65560000     -73.53480000
C      -46.32710000     -32.98400000     -74.01570000
H      -47.18620000     -32.97350000     -74.67390000
H      -45.51520000     -32.35240000     -74.53640000
C      -46.59910000     -32.20650000     -72.71700000
C      -47.85610000     -31.84660000     -72.27120000
C      -45.58940000     -31.65430000     -71.83200000
H      -48.76450000     -32.07360000     -72.70340000
C      -46.22640000     -30.90010000     -70.78750000
C      -44.15060000     -31.48840000     -71.74180000
C      -43.69370000     -30.55960000     -70.82890000
S      -47.91320000     -30.88980000     -70.82870000
S      -45.06940000     -29.92130000     -69.83220000
H      -42.68420000     -30.25160000     -70.54470000
