40
Properties=species:S:1:pos:R:3 #=T CELL(abcABC):=T 1.889726e+02=T 90.00000=T Traj:=T positionsangstrom=T Step:=T 0=T Bead:=T pbc="F F F"
C      -43.87300000     -36.44490000     -69.64130000
C      -44.28340000     -35.13570000     -69.76070000
C      -45.62000000     -34.91020000     -70.18010000
C      -46.41520000     -35.92500000     -70.84040000
C      -45.87420000     -37.23060000     -70.88670000
C      -44.60620000     -37.42910000     -70.26900000
H      -42.90000000     -36.78070000     -69.26990000
H      -45.96660000     -33.90610000     -70.36570000
H      -46.31520000     -38.06900000     -71.41780000
H      -44.24120000     -38.56820000     -70.18280000
C      -47.62510000     -35.36690000     -71.52610000
H      -47.64900000     -34.30710000     -71.34060000
H      -48.49740000     -35.89780000     -71.21080000
C      -43.46680000     -33.95580000     -69.20800000
H      -44.04660000     -33.03520000     -69.09200000
H      -43.00320000     -34.21720000     -68.18560000
S      -47.42070000     -35.45420000     -73.35400000
S      -41.91150000     -33.71030000     -70.22880000
C      -45.80180000     -34.68050000     -73.66730000
H      -45.14970000     -34.98710000     -72.87000000
H      -45.57620000     -35.24780000     -74.58040000
C      -42.54880000     -33.47710000     -71.92270000
H      -43.45370000     -34.00890000     -72.01640000
H      -41.79130000     -33.81810000     -72.65430000
C      -42.87930000     -31.93280000     -72.29650000
H      -42.03450000     -31.30850000     -72.19510000
H      -43.09890000     -31.91700000     -73.35820000
C      -45.73390000     -33.18660000     -74.01490000
H      -46.27870000     -32.87340000     -74.86580000
H      -44.67340000     -33.01130000     -74.13250000
C      -46.20340000     -32.28930000     -72.87090000
C      -47.52970000     -31.89850000     -72.73780000
C      -45.48890000     -31.67390000     -71.80200000
H      -48.31670000     -32.42240000     -73.34630000
C      -46.30150000     -30.98630000     -70.89620000
C      -44.04400000     -31.42380000     -71.49240000
C      -43.95310000     -30.48340000     -70.48900000
S      -47.96220000     -31.02540000     -71.23510000
S      -45.46260000     -30.08110000     -69.70760000
H      -43.00360000     -29.97770000     -70.27600000
