40
Properties=species:S:1:pos:R:3 #=T CELL(abcABC):=T 1.889726e+02=T 90.00000=T Traj:=T positionsangstrom=T Step:=T 0=T Bead:=T pbc="F F F"
C      -44.92240000     -34.34160000     -74.86320000
C      -45.40210000     -35.33840000     -73.99620000
C      -44.44380000     -35.93970000     -73.08580000
C      -43.08260000     -35.55860000     -73.08300000
C      -42.65270000     -34.63920000     -74.03030000
C      -43.54870000     -34.02750000     -74.91040000
H      -45.49740000     -33.83430000     -75.69900000
H      -44.90440000     -36.64400000     -72.39520000
H      -41.59790000     -34.42090000     -74.11320000
H      -43.24280000     -33.20720000     -75.51190000
C      -41.98670000     -35.92960000     -72.05060000
H      -41.11780000     -35.22940000     -72.14630000
H      -41.59960000     -36.93300000     -72.16350000
C      -46.80290000     -35.82850000     -74.08720000
H      -47.20180000     -36.25470000     -75.06030000
H      -46.89340000     -36.61030000     -73.28750000
S      -42.55330000     -35.72220000     -70.27380000
S      -48.21620000     -34.60270000     -73.73070000
C      -43.23170000     -34.08250000     -69.96020000
H      -42.56900000     -33.47820000     -69.34900000
H      -43.25680000     -33.51030000     -70.89180000
C      -47.77800000     -33.62270000     -72.26180000
H      -47.91600000     -34.25560000     -71.43420000
H      -48.59310000     -32.84940000     -72.35880000
C      -46.41810000     -32.94000000     -72.26480000
H      -45.71650000     -33.68490000     -72.29950000
H      -46.27720000     -32.44070000     -73.28960000
C      -44.64220000     -34.24560000     -69.38880000
H      -44.71200000     -34.90410000     -68.57010000
H      -45.16160000     -34.81590000     -70.12800000
C      -45.21500000     -32.98180000     -68.94130000
C      -45.13000000     -32.52460000     -67.65410000
C      -45.84960000     -31.91270000     -69.81330000
H      -44.82950000     -33.08830000     -66.71010000
C      -46.09300000     -30.72880000     -69.10430000
C      -46.33400000     -31.86350000     -71.17260000
C      -47.03530000     -30.73400000     -71.37680000
S      -45.62840000     -30.81840000     -67.43350000
S      -46.90390000     -29.50180000     -70.06250000
H      -47.58980000     -30.48220000     -72.30370000
