40
Properties=species:S:1:pos:R:3 #=T CELL(abcABC):=T 1.889726e+02=T 90.00000=T Traj:=T positionsangstrom=T Step:=T 0=T Bead:=T pbc="F F F"
C      -43.79710000     -36.32420000     -69.49140000
C      -44.14470000     -35.04870000     -69.58260000
C      -45.21630000     -34.67100000     -70.35080000
C      -46.16020000     -35.64290000     -70.72890000
C      -45.91670000     -37.01480000     -70.49610000
C      -44.70180000     -37.36800000     -69.81550000
H      -42.91850000     -36.62000000     -68.91220000
H      -45.41930000     -33.66450000     -70.50030000
H      -46.70760000     -37.72210000     -70.72350000
H      -44.44180000     -38.35480000     -69.61680000
C      -47.39290000     -35.24220000     -71.47060000
H      -47.53350000     -34.13630000     -71.21290000
H      -48.30170000     -35.78880000     -71.16220000
C      -43.23890000     -33.95340000     -69.00660000
H      -43.86230000     -33.01870000     -68.94190000
H      -42.78310000     -34.14190000     -68.06530000
S      -47.14050000     -35.35490000     -73.30700000
S      -41.78880000     -33.56680000     -70.01780000
C      -45.52470000     -34.65520000     -73.71880000
H      -44.78940000     -34.81220000     -72.90530000
H      -45.11350000     -35.17240000     -74.59010000
C      -42.41100000     -33.41420000     -71.77300000
H      -43.06650000     -34.22340000     -71.81060000
H      -41.57380000     -33.64320000     -72.48500000
C      -43.02940000     -32.02420000     -72.11620000
H      -42.23430000     -31.26590000     -71.93730000
H      -43.27580000     -32.10990000     -73.17310000
C      -45.61470000     -33.13070000     -74.22690000
H      -46.35560000     -33.26270000     -74.98730000
H      -44.66280000     -32.80360000     -74.64570000
C      -46.21560000     -32.20200000     -73.14740000
C      -47.55930000     -31.92460000     -73.27370000
C      -45.64010000     -31.75510000     -71.89700000
H      -48.18190000     -32.11010000     -74.16870000
C      -46.53430000     -31.15750000     -71.11450000
C      -44.28240000     -31.58580000     -71.44290000
C      -44.30380000     -30.80790000     -70.27850000
S      -48.20730000     -31.16870000     -71.77250000
S      -45.87890000     -30.39950000     -69.69810000
H      -43.27440000     -30.59340000     -69.73160000
