40
Properties=species:S:1:pos:R:3 #=T CELL(abcABC):=T 1.889726e+02=T 90.00000=T Traj:=T positionsangstrom=T Step:=T 0=T Bead:=T pbc="F F F"
C      -43.59240000     -36.51250000     -69.62340000
C      -44.05860000     -35.23000000     -69.76060000
C      -45.28060000     -35.06330000     -70.40360000
C      -46.02750000     -36.21760000     -70.84150000
C      -45.53810000     -37.49640000     -70.66880000
C      -44.25690000     -37.62210000     -70.11530000
H      -42.57110000     -36.60500000     -69.14400000
H      -45.63770000     -34.05040000     -70.60700000
H      -46.10700000     -38.44590000     -70.95760000
H      -43.79430000     -38.62230000     -69.95330000
C      -47.33020000     -35.78860000     -71.39430000
H      -47.66610000     -34.89140000     -70.92760000
H      -48.13910000     -36.52030000     -71.27230000
C      -43.28400000     -34.06020000     -69.30910000
H      -43.95180000     -33.25360000     -69.00250000
H      -42.55750000     -34.16730000     -68.49730000
S      -47.25320000     -35.64700000     -73.26630000
S      -41.93740000     -33.55190000     -70.59360000
C      -45.75450000     -34.44390000     -73.58130000
H      -45.13080000     -34.58280000     -72.68660000
H      -45.07120000     -34.82580000     -74.35560000
C      -42.77230000     -33.30990000     -72.18990000
H      -43.64720000     -33.92620000     -72.32970000
H      -42.01180000     -33.57770000     -72.93930000
C      -43.15040000     -31.86250000     -72.67830000
H      -42.26110000     -31.28060000     -72.65190000
H      -43.53690000     -31.98420000     -73.65620000
C      -46.15900000     -33.00180000     -73.81020000
H      -46.93250000     -32.99190000     -74.66170000
H      -45.27970000     -32.51860000     -74.27210000
C      -46.64930000     -32.22430000     -72.62730000
C      -47.98840000     -32.09610000     -72.26940000
C      -45.72450000     -31.45650000     -71.86270000
H      -48.87140000     -32.62310000     -72.61720000
C      -46.42410000     -30.74020000     -70.89350000
C      -44.27290000     -31.31060000     -71.71960000
C      -43.96170000     -30.47810000     -70.65440000
S      -48.17420000     -30.92780000     -70.95820000
S      -45.39860000     -29.93820000     -69.75630000
H      -42.89730000     -30.27170000     -70.44960000
