40
Properties=species:S:1:pos:R:3 #=T CELL(abcABC):=T 1.889726e+02=T 90.00000=T Traj:=T positionsangstrom=T Step:=T 0=T Bead:=T pbc="F F F"
C      -43.59020000     -36.59410000     -69.73290000
C      -44.06600000     -35.26700000     -69.75580000
C      -45.34640000     -35.03080000     -70.31050000
C      -46.10860000     -36.08350000     -70.82770000
C      -45.59140000     -37.39550000     -70.76430000
C      -44.36010000     -37.67040000     -70.25930000
H      -42.61920000     -36.75000000     -69.32050000
H      -45.77930000     -33.97390000     -70.24630000
H      -46.20110000     -38.19400000     -71.20210000
H      -43.86460000     -38.59890000     -70.32980000
C      -47.45250000     -35.85680000     -71.51780000
H      -47.99120000     -34.93370000     -71.17940000
H      -48.13810000     -36.69460000     -71.48720000
C      -43.24410000     -34.05790000     -69.25290000
H      -43.98370000     -33.22820000     -69.15980000
H      -42.77310000     -34.28840000     -68.29390000
S      -47.32430000     -35.61130000     -73.37830000
S      -41.89890000     -33.35050000     -70.31870000
C      -45.93940000     -34.40280000     -73.58960000
H      -45.34890000     -34.30680000     -72.70510000
H      -45.40430000     -34.67440000     -74.48090000
C      -42.70660000     -33.48140000     -72.06280000
H      -43.52690000     -34.18480000     -71.88390000
H      -42.05410000     -34.06060000     -72.76090000
C      -43.18920000     -32.16380000     -72.63230000
H      -42.35270000     -31.49620000     -72.86410000
H      -43.66670000     -32.34150000     -73.64640000
C      -46.33830000     -32.98870000     -73.94650000
H      -47.15900000     -32.96860000     -74.60290000
H      -45.51660000     -32.46960000     -74.40410000
C      -46.65790000     -32.15820000     -72.73220000
C      -47.96500000     -32.00800000     -72.31320000
C      -45.66990000     -31.54020000     -71.81140000
H      -48.86700000     -32.13210000     -72.90980000
C      -46.36740000     -30.78430000     -70.85140000
C      -44.17140000     -31.40940000     -71.72110000
C      -43.89440000     -30.50230000     -70.68980000
S      -48.03270000     -31.04530000     -70.82250000
S      -45.28120000     -29.86220000     -69.88990000
H      -42.85390000     -30.34250000     -70.35880000
