40
Properties=species:S:1:pos:R:3 #=T CELL(abcABC):=T 1.889726e+02=T 90.00000=T Traj:=T positionsangstrom=T Step:=T 0=T Bead:=T pbc="F F F"
C      -41.53400000     -32.81290000     -72.61790000
C      -42.58210000     -33.19270000     -71.73750000
C      -43.67590000     -33.97080000     -72.16290000
C      -43.92090000     -34.04380000     -73.49570000
C      -42.97390000     -33.43040000     -74.50200000
C      -41.82650000     -32.77110000     -73.99060000
H      -40.66040000     -32.27930000     -72.26520000
H      -44.44580000     -34.29350000     -71.45560000
H      -43.35610000     -33.59000000     -75.55470000
H      -41.08230000     -32.50500000     -74.78530000
C      -45.18900000     -34.68550000     -73.93260000
H      -45.72960000     -35.13720000     -73.05760000
H      -45.01650000     -35.60910000     -74.47190000
C      -42.52140000     -32.88250000     -70.22130000
H      -43.08920000     -33.63710000     -69.67880000
H      -41.55490000     -33.10000000     -69.82390000
S      -46.34480000     -33.54790000     -74.80080000
S      -43.05250000     -31.17340000     -69.83320000
C      -46.78740000     -32.48260000     -73.37710000
H      -45.90870000     -32.30830000     -72.82730000
H      -47.09470000     -31.56060000     -73.88330000
C      -44.61480000     -30.81750000     -70.85670000
H      -44.44360000     -31.40470000     -71.73770000
H      -44.55020000     -29.73890000     -71.13710000
C      -45.96460000     -31.05530000     -70.26150000
H      -46.04070000     -30.34820000     -69.46960000
H      -46.80870000     -30.84780000     -70.95990000
C      -47.91680000     -32.98880000     -72.53150000
H      -48.68770000     -33.55130000     -73.05040000
H      -48.54200000     -32.19170000     -72.07540000
C      -47.56360000     -33.93530000     -71.42440000
C      -48.02190000     -35.25190000     -71.43700000
C      -46.88150000     -33.59130000     -70.18450000
H      -48.43530000     -35.82550000     -72.25370000
C      -46.92000000     -34.61740000     -69.32460000
C      -46.17830000     -32.42400000     -69.62700000
C      -45.74310000     -32.68800000     -68.33740000
S      -47.68580000     -36.02940000     -69.84380000
S      -46.06090000     -34.33330000     -67.82480000
H      -45.30780000     -31.86890000     -67.80140000
