40
Properties=species:S:1:pos:R:3 #=T CELL(abcABC):=T 1.889726e+02=T 90.00000=T Traj:=T positionsangstrom=T Step:=T 0=T Bead:=T pbc="F F F"
C      -43.53120000     -36.55210000     -69.83530000
C      -44.11490000     -35.20940000     -69.72250000
C      -45.34650000     -34.94980000     -70.31320000
C      -46.08200000     -35.92250000     -70.90540000
C      -45.57890000     -37.21820000     -70.89950000
C      -44.34380000     -37.54290000     -70.39580000
H      -42.54970000     -36.78280000     -69.48410000
H      -45.66120000     -33.86960000     -70.31380000
H      -46.18310000     -37.92230000     -71.39510000
H      -44.00140000     -38.54060000     -70.50210000
C      -47.39990000     -35.68740000     -71.58650000
H      -47.83000000     -34.72150000     -71.14450000
H      -48.03560000     -36.52480000     -71.29180000
C      -43.42990000     -34.12040000     -69.05340000
H      -44.08340000     -33.31520000     -68.73340000
H      -43.06260000     -34.56520000     -68.15180000
S      -47.34650000     -35.69580000     -73.43910000
S      -42.10020000     -33.34350000     -70.18350000
C      -46.00680000     -34.61410000     -73.86900000
H      -45.16860000     -34.86670000     -73.17880000
H      -45.66990000     -35.02970000     -74.85000000
C      -42.70750000     -33.43430000     -71.94380000
H      -43.53210000     -34.13520000     -71.88510000
H      -41.92040000     -33.82280000     -72.57500000
C      -43.16810000     -32.15700000     -72.55890000
H      -42.21620000     -31.60260000     -72.70480000
H      -43.46090000     -32.29160000     -73.63110000
C      -46.41400000     -33.11040000     -73.87450000
H      -47.26580000     -32.94590000     -74.53140000
H      -45.57800000     -32.62950000     -74.47270000
C      -46.62580000     -32.33250000     -72.58860000
C      -47.90870000     -32.04420000     -72.18360000
C      -45.65030000     -31.66780000     -71.78110000
H      -48.82420000     -32.31300000     -72.69800000
C      -46.26540000     -30.86400000     -70.83730000
C      -44.20210000     -31.41000000     -71.80300000
C      -43.76270000     -30.54170000     -70.83920000
S      -48.03230000     -30.97690000     -70.82420000
S      -45.11190000     -29.84890000     -69.86640000
H      -42.78030000     -30.08420000     -70.74320000
