40
Properties=species:S:1:pos:R:3 #=T CELL(abcABC):=T 1.889726e+02=T 90.00000=T Traj:=T positionsangstrom=T Step:=T 0=T Bead:=T pbc="F F F"
C      -43.46160000     -36.07020000     -69.42770000
C      -44.01710000     -34.88500000     -69.79750000
C      -45.39470000     -34.79510000     -70.19490000
C      -46.22390000     -35.92360000     -70.21690000
C      -45.60210000     -37.14320000     -69.89910000
C      -44.29610000     -37.19000000     -69.49480000
H      -42.40520000     -36.16550000     -69.27270000
H      -45.89320000     -33.83830000     -70.42340000
H      -46.18520000     -38.05060000     -69.98710000
H      -43.83660000     -38.12370000     -69.19460000
C      -47.61190000     -35.74970000     -70.63440000
H      -48.01760000     -34.74340000     -70.26460000
H      -48.29020000     -36.55680000     -70.16430000
C      -43.14640000     -33.62760000     -69.88840000
H      -43.85900000     -32.82230000     -69.99560000
H      -42.58440000     -33.35170000     -68.99950000
S      -47.90710000     -35.81720000     -72.44850000
S      -41.93600000     -33.49430000     -71.25310000
C      -46.35710000     -35.23670000     -73.30780000
H      -45.39050000     -35.51340000     -72.76500000
H      -46.41840000     -35.63480000     -74.33480000
C      -43.01550000     -33.54690000     -72.70430000
H      -44.05240000     -33.87600000     -72.53590000
H      -42.45590000     -34.10540000     -73.44250000
C      -43.20660000     -32.10300000     -73.23770000
H      -42.18610000     -31.58520000     -73.13130000
H      -43.54610000     -32.13820000     -74.28420000
C      -46.44220000     -33.66260000     -73.60680000
H      -47.32660000     -33.44640000     -74.33450000
H      -45.51750000     -33.35120000     -74.15820000
C      -46.50340000     -32.62690000     -72.44320000
C      -47.71830000     -32.43890000     -71.77220000
C      -45.56290000     -31.66230000     -72.00170000
H      -48.52010000     -33.17110000     -71.68180000
C      -46.05550000     -30.79160000     -71.04380000
C      -44.21010000     -31.29240000     -72.33430000
C      -43.72510000     -30.23550000     -71.64520000
S      -47.67250000     -31.16670000     -70.58560000
S      -45.02660000     -29.52730000     -70.57610000
H      -42.74070000     -29.76570000     -71.78280000
