40
Properties=species:S:1:pos:R:3 #=T CELL(abcABC):=T 1.889726e+02=T 90.00000=T Traj:=T positionsangstrom=T Step:=T 0=T Bead:=T pbc="F F F"
C      -46.00960000     -36.40500000     -72.84350000
C      -46.99700000     -36.02050000     -71.87330000
C      -47.81420000     -34.90530000     -72.10270000
C      -47.61960000     -34.07780000     -73.22330000
C      -46.60090000     -34.41020000     -74.11150000
C      -45.85220000     -35.58770000     -73.91720000
H      -45.35390000     -37.16620000     -72.68710000
H      -48.62960000     -34.79760000     -71.41100000
H      -46.37190000     -33.90240000     -75.02850000
H      -45.23890000     -35.79330000     -74.79550000
C      -48.55620000     -32.81770000     -73.32440000
H      -49.43370000     -32.89970000     -72.60640000
H      -49.05310000     -32.93720000     -74.31220000
C      -47.16810000     -36.70770000     -70.51960000
H      -47.76150000     -36.09990000     -69.82600000
H      -47.75360000     -37.64700000     -70.57200000
S      -47.79060000     -31.17740000     -73.18450000
S      -45.67120000     -37.32350000     -69.63900000
C      -47.68350000     -31.06840000     -71.37060000
H      -47.51290000     -29.99330000     -71.11200000
H      -48.66640000     -31.34990000     -70.97070000
C      -44.49510000     -35.95440000     -69.98970000
H      -44.36540000     -35.79710000     -71.07970000
H      -43.54430000     -36.25460000     -69.61190000
C      -44.81290000     -34.50110000     -69.46710000
H      -45.78970000     -34.07670000     -69.76330000
H      -44.79590000     -34.55280000     -68.36810000
C      -46.56270000     -31.91580000     -70.73500000
H      -46.62540000     -32.95220000     -71.06740000
H      -46.77480000     -31.88740000     -69.64320000
C      -45.10030000     -31.49820000     -70.97120000
C      -44.69240000     -30.33860000     -71.52890000
C      -43.97300000     -32.25280000     -70.51670000
H      -45.37370000     -29.64820000     -71.93880000
C      -42.77300000     -31.54550000     -70.67370000
C      -43.75110000     -33.49420000     -69.80450000
C      -42.45540000     -33.60460000     -69.35980000
S      -42.99300000     -30.07640000     -71.45690000
S      -41.39560000     -32.25940000     -69.80190000
H      -41.91560000     -34.39230000     -68.84640000
