40
Properties=species:S:1:pos:R:3 #=T CELL(abcABC):=T 1.889726e+02=T 90.00000=T Traj:=T positionsangstrom=T Step:=T 0=T Bead:=T pbc="F F F"
C      -43.06060000     -36.45480000     -69.71910000
C      -43.37330000     -35.04850000     -69.71820000
C      -44.69030000     -34.66910000     -69.94390000
C      -45.66210000     -35.66460000     -70.20000000
C      -45.32500000     -37.02010000     -70.16830000
C      -44.02270000     -37.45930000     -69.88710000
H      -42.04670000     -36.65530000     -69.41720000
H      -44.93560000     -33.64070000     -70.24190000
H      -46.04120000     -37.81210000     -70.29110000
H      -43.80630000     -38.51500000     -69.78940000
C      -46.99190000     -35.24230000     -70.65430000
H      -47.17050000     -34.12690000     -70.63100000
H      -47.81160000     -35.73980000     -70.08250000
C      -42.44720000     -33.87820000     -69.63080000
H      -42.80590000     -32.96510000     -69.14040000
H      -41.66790000     -34.16120000     -69.01690000
S      -47.40500000     -35.74000000     -72.41770000
S      -41.76220000     -33.31860000     -71.23140000
C      -46.44830000     -34.62380000     -73.45220000
H      -45.53110000     -34.53820000     -72.87290000
H      -46.15530000     -35.17390000     -74.37310000
C      -42.94770000     -33.74020000     -72.50490000
H      -43.69660000     -34.40610000     -72.13170000
H      -42.38850000     -34.26610000     -73.31030000
C      -43.66600000     -32.52040000     -73.06570000
H      -42.95860000     -31.80600000     -73.55930000
H      -44.33570000     -32.85840000     -73.91560000
C      -47.21530000     -33.31660000     -73.81540000
H      -48.23230000     -33.68160000     -73.96220000
H      -46.77200000     -32.91430000     -74.73090000
C      -47.14030000     -32.24240000     -72.75540000
C      -48.34370000     -31.56550000     -72.46380000
C      -46.03460000     -31.76910000     -72.00990000
H      -49.31430000     -31.93210000     -72.78630000
C      -46.52580000     -30.94920000     -71.02040000
C      -44.53090000     -31.77670000     -72.06220000
C      -44.01730000     -31.02580000     -71.02500000
S      -48.16160000     -30.60020000     -71.00560000
S      -45.27330000     -30.35700000     -70.03340000
H      -42.93300000     -30.88930000     -70.75860000
