40
Properties=species:S:1:pos:R:3 #=T CELL(abcABC):=T 1.889726e+02=T 90.00000=T Traj:=T positionsangstrom=T Step:=T 0=T Bead:=T pbc="F F F"
C      -43.01050000     -36.32840000     -69.74400000
C      -43.34410000     -34.97970000     -69.90210000
C      -44.68310000     -34.62780000     -70.14090000
C      -45.60990000     -35.63530000     -70.33000000
C      -45.24640000     -37.00740000     -70.26180000
C      -43.94370000     -37.33010000     -70.03250000
H      -41.94170000     -36.54370000     -69.68730000
H      -44.93490000     -33.58300000     -69.99880000
H      -46.01840000     -37.69590000     -70.50950000
H      -43.72000000     -38.39200000     -70.14140000
C      -47.03850000     -35.26950000     -70.63690000
H      -47.15740000     -34.17300000     -70.47540000
H      -47.64560000     -35.90180000     -70.01030000
C      -42.24910000     -34.00080000     -69.68640000
H      -42.64580000     -33.11260000     -69.13370000
H      -41.49580000     -34.53390000     -69.06610000
S      -47.64570000     -35.55280000     -72.42010000
S      -41.39680000     -33.41190000     -71.26150000
C      -46.42550000     -34.55670000     -73.41980000
H      -45.54320000     -34.33110000     -72.78280000
H      -46.15020000     -35.16660000     -74.26410000
C      -42.78660000     -33.61090000     -72.53080000
H      -43.34390000     -34.51230000     -72.19890000
H      -42.28060000     -33.85220000     -73.48810000
C      -43.70750000     -32.49780000     -72.90560000
H      -43.08510000     -31.69730000     -73.28580000
H      -44.27700000     -32.89360000     -73.75000000
C      -46.84130000     -33.18500000     -73.88220000
H      -47.73590000     -33.17480000     -74.58290000
H      -46.05410000     -32.80240000     -74.48860000
C      -47.11940000     -32.26630000     -72.76020000
C      -48.41080000     -31.88820000     -72.41640000
C      -46.07830000     -31.67490000     -71.99340000
H      -49.31750000     -32.17810000     -72.95170000
C      -46.66460000     -30.90810000     -70.97750000
C      -44.58620000     -31.91120000     -71.83480000
C      -44.13560000     -31.20260000     -70.72390000
S      -48.44540000     -30.75600000     -71.08820000
S      -45.39320000     -30.34360000     -69.87760000
H      -43.07390000     -31.01750000     -70.50890000
