40
Properties=species:S:1:pos:R:3 #=T CELL(abcABC):=T 1.889726e+02=T 90.00000=T Traj:=T positionsangstrom=T Step:=T 0=T Bead:=T pbc="F F F"
C      -46.61260000     -36.28750000     -69.62080000
C      -46.74450000     -35.15610000     -68.74850000
C      -47.63710000     -34.12590000     -69.06000000
C      -48.35450000     -34.14770000     -70.30720000
C      -48.21310000     -35.24510000     -71.16260000
C      -47.39050000     -36.33800000     -70.79810000
H      -46.06240000     -37.18090000     -69.35470000
H      -47.74730000     -33.28000000     -68.25360000
H      -48.89540000     -35.34860000     -72.05900000
H      -47.33330000     -37.30190000     -71.30050000
C      -49.26980000     -33.02030000     -70.63430000
H      -49.91650000     -32.98670000     -69.72770000
H      -49.81930000     -33.20100000     -71.53760000
C      -45.83450000     -35.09640000     -67.48570000
H      -46.27210000     -34.50130000     -66.66470000
H      -45.70670000     -36.07840000     -67.16850000
S      -48.48790000     -31.39620000     -70.92620000
S      -44.16920000     -34.28400000     -67.69850000
C      -47.21460000     -31.93260000     -72.19930000
H      -46.91260000     -33.00790000     -72.12870000
H      -47.56600000     -31.64740000     -73.21790000
C      -43.56560000     -34.64460000     -69.50580000
H      -43.62650000     -35.71850000     -69.59100000
H      -42.48480000     -34.38320000     -69.52730000
C      -44.40640000     -33.93160000     -70.53120000
H      -45.26070000     -34.55420000     -70.67530000
H      -44.79540000     -32.99400000     -70.20340000
C      -45.86640000     -31.19240000     -71.93440000
H      -45.69970000     -31.44270000     -70.88200000
H      -45.96210000     -30.09480000     -71.89660000
C      -44.79040000     -31.50090000     -72.80900000
C      -44.43890000     -30.70400000     -73.93670000
C      -43.91290000     -32.63020000     -72.75110000
H      -44.91550000     -29.78780000     -74.12590000
C      -43.01930000     -32.64200000     -73.79970000
C      -43.68570000     -33.75010000     -71.80010000
C      -42.71310000     -34.57860000     -72.21880000
S      -43.10590000     -31.27720000     -74.85700000
S      -41.91940000     -34.04930000     -73.66530000
H      -42.36040000     -35.38940000     -71.58980000
