40
Properties=species:S:1:pos:R:3 #=T CELL(abcABC):=T 1.889726e+02=T 90.00000=T Traj:=T positionsangstrom=T Step:=T 0=T Bead:=T pbc="F F F"
C      -45.92710000     -36.29670000     -72.71570000
C      -46.89990000     -35.90060000     -71.84500000
C      -47.73320000     -34.73960000     -72.04990000
C      -47.50110000     -33.95120000     -73.20260000
C      -46.42600000     -34.35270000     -74.07740000
C      -45.68430000     -35.46930000     -73.81980000
H      -45.55710000     -37.30290000     -72.64490000
H      -48.52690000     -34.50630000     -71.40410000
H      -46.16630000     -33.77530000     -74.96460000
H      -44.85200000     -35.79680000     -74.48780000
C      -48.41400000     -32.83030000     -73.63770000
H      -49.38360000     -32.90030000     -73.21370000
H      -48.42880000     -32.80460000     -74.72200000
C      -47.21850000     -36.83220000     -70.71250000
H      -48.18130000     -36.53600000     -70.25700000
H      -47.27550000     -37.82030000     -71.11560000
S      -47.72170000     -31.20000000     -73.10860000
S      -45.80060000     -37.11420000     -69.48220000
C      -47.64360000     -31.11640000     -71.31650000
H      -47.35570000     -30.06920000     -71.07380000
H      -48.63340000     -31.30190000     -70.93930000
C      -44.51120000     -35.90750000     -69.91220000
H      -44.31060000     -35.93500000     -70.97830000
H      -43.56050000     -36.34100000     -69.45630000
C      -44.88070000     -34.50320000     -69.42070000
H      -45.74880000     -34.29540000     -69.98180000
H      -45.04550000     -34.36640000     -68.35240000
C      -46.58400000     -32.03990000     -70.78330000
H      -46.64770000     -33.02070000     -71.15320000
H      -46.72240000     -32.21940000     -69.71020000
C      -45.19060000     -31.52520000     -70.89720000
C      -44.80840000     -30.41490000     -71.54130000
C      -44.03460000     -32.25710000     -70.39910000
H      -45.48740000     -29.69700000     -71.97240000
C      -42.84880000     -31.54630000     -70.60990000
C      -43.81400000     -33.50440000     -69.75700000
C      -42.52970000     -33.67080000     -69.33680000
S      -43.06140000     -30.19900000     -71.55730000
S      -41.40010000     -32.38240000     -69.99150000
H      -42.01890000     -34.52620000     -68.93970000
