40
Properties=species:S:1:pos:R:3 #=T CELL(abcABC):=T 1.889726e+02=T 90.00000=T Traj:=T positionsangstrom=T Step:=T 0=T Bead:=T pbc="F F F"
C      -41.36500000     -33.88540000     -71.78580000
C      -42.73540000     -34.01100000     -71.42840000
C      -43.73190000     -33.71720000     -72.38550000
C      -43.34460000     -33.25010000     -73.65510000
C      -41.99440000     -33.00790000     -73.95360000
C      -41.01190000     -33.25670000     -72.99390000
H      -40.59680000     -33.97130000     -70.98650000
H      -44.74830000     -33.70680000     -72.05260000
H      -41.74660000     -32.58490000     -74.90320000
H      -39.97140000     -33.06650000     -73.12780000
C      -44.36950000     -33.06810000     -74.74640000
H      -44.42020000     -33.96970000     -75.33270000
H      -44.18520000     -32.20780000     -75.39490000
C      -43.12930000     -34.36570000     -70.00780000
H      -44.13000000     -34.87780000     -69.88240000
H      -42.37480000     -35.01380000     -69.65790000
S      -46.07190000     -32.80940000     -74.15810000
S      -42.84470000     -32.86940000     -68.97060000
C      -45.86080000     -31.42780000     -72.97190000
H      -44.92870000     -31.54050000     -72.43900000
H      -45.68970000     -30.52730000     -73.59040000
C      -44.03790000     -31.59190000     -69.52710000
H      -44.08000000     -31.48600000     -70.58560000
H      -43.69990000     -30.64250000     -69.19890000
C      -45.46380000     -31.70900000     -69.03740000
H      -45.33820000     -31.56200000     -67.94840000
H      -46.09070000     -30.95410000     -69.42340000
C      -47.12470000     -31.33680000     -72.14260000
H      -47.89660000     -30.83910000     -72.74100000
H      -46.98280000     -30.51920000     -71.44630000
C      -47.60060000     -32.58840000     -71.59660000
C      -48.56960000     -33.31500000     -72.20680000
C      -47.01550000     -33.32620000     -70.51340000
H      -48.98040000     -33.08960000     -73.18480000
C      -47.43020000     -34.65810000     -70.38070000
C      -46.17670000     -32.98340000     -69.37420000
C      -46.18140000     -33.96230000     -68.36810000
S      -48.71850000     -35.01500000     -71.64010000
S      -47.17360000     -35.37210000     -68.85900000
H      -45.69620000     -33.98040000     -67.35290000
