40
Properties=species:S:1:pos:R:3 #=T CELL(abcABC):=T 1.889726e+02=T 90.00000=T Traj:=T positionsangstrom=T Step:=T 0=T Bead:=T pbc="F F F"
C      -41.30580000     -33.33930000     -71.65990000
C      -42.59780000     -33.86410000     -71.62770000
C      -43.46100000     -33.47950000     -72.65920000
C      -43.10170000     -32.61670000     -73.70490000
C      -41.78400000     -32.01230000     -73.64900000
C      -40.94160000     -32.43260000     -72.62350000
H      -40.63080000     -33.49840000     -70.82830000
H      -44.43810000     -34.00560000     -72.67930000
H      -41.44460000     -31.31150000     -74.38590000
H      -39.92030000     -32.11300000     -72.64640000
C      -44.15430000     -32.13520000     -74.70800000
H      -44.15930000     -32.56760000     -75.69710000
H      -44.02110000     -31.10680000     -74.94340000
C      -43.19810000     -34.48160000     -70.37980000
H      -44.19120000     -34.86040000     -70.62890000
H      -42.68170000     -35.36660000     -70.00050000
S      -45.90750000     -32.31560000     -74.20270000
S      -43.16350000     -33.37760000     -68.91590000
C      -45.87680000     -31.23870000     -72.74990000
H      -45.07870000     -31.42430000     -71.99370000
H      -45.75710000     -30.23150000     -73.16130000
C      -44.25070000     -31.89480000     -69.39490000
H      -44.06790000     -31.64110000     -70.40690000
H      -43.84610000     -30.95750000     -68.85130000
C      -45.71610000     -32.14220000     -68.82640000
H      -45.76980000     -32.10350000     -67.72460000
H      -46.23220000     -31.18930000     -69.15140000
C      -47.14890000     -31.38140000     -71.89080000
H      -47.96940000     -30.88150000     -72.41570000
H      -47.07350000     -30.94530000     -70.95200000
C      -47.54110000     -32.88180000     -71.55400000
C      -48.33520000     -33.55240000     -72.44640000
C      -47.15780000     -33.60870000     -70.42100000
H      -48.82760000     -33.15030000     -73.35340000
C      -47.65410000     -34.90170000     -70.48130000
C      -46.39820000     -33.34510000     -69.23930000
C      -46.26540000     -34.41880000     -68.43220000
S      -48.68900000     -35.19020000     -71.78890000
S      -47.13530000     -35.91470000     -69.01630000
H      -45.72930000     -34.55990000     -67.48830000
