40
Properties=species:S:1:pos:R:3 #=T CELL(abcABC):=T 1.889726e+02=T 90.00000=T Traj:=T positionsangstrom=T Step:=T 0=T Bead:=T pbc="F F F"
C      -46.01820000     -36.34940000     -70.35200000
C      -46.06170000     -35.52930000     -69.17460000
C      -47.15720000     -34.69780000     -69.00840000
C      -48.09410000     -34.50570000     -70.05700000
C      -48.02280000     -35.32600000     -71.19040000
C      -47.00970000     -36.25250000     -71.32780000
H      -45.21660000     -37.11480000     -70.46560000
H      -47.34770000     -34.14280000     -68.11250000
H      -48.66090000     -35.13340000     -72.04100000
H      -46.91850000     -36.93510000     -72.13250000
C      -49.08220000     -33.33410000     -70.08950000
H      -49.46610000     -33.06560000     -69.07250000
H      -49.97520000     -33.43050000     -70.69870000
C      -44.90290000     -35.45180000     -68.24040000
H      -44.97510000     -36.06380000     -67.36330000
H      -44.06060000     -35.87400000     -68.68820000
S      -48.22530000     -31.75570000     -70.44250000
S      -44.72320000     -33.76710000     -67.61760000
C      -47.34760000     -32.18920000     -71.99770000
H      -46.83120000     -33.13030000     -71.76610000
H      -48.11110000     -32.31170000     -72.89360000
C      -43.74370000     -32.96250000     -68.87980000
H      -42.85820000     -33.63660000     -68.92480000
H      -43.33850000     -32.08300000     -68.40260000
C      -44.42220000     -32.60050000     -70.21920000
H      -45.43040000     -33.00540000     -70.23620000
H      -44.68610000     -31.58650000     -70.26790000
C      -46.38910000     -31.15450000     -72.51070000
H      -45.88670000     -30.58390000     -71.65080000
H      -46.93290000     -30.44590000     -73.12050000
C      -45.21960000     -31.80970000     -73.38390000
C      -45.04350000     -31.48160000     -74.66500000
C      -44.15640000     -32.62250000     -72.80330000
H      -45.76240000     -30.94050000     -75.22920000
C      -43.24370000     -33.02220000     -73.78320000
C      -43.66600000     -32.95010000     -71.48550000
C      -42.41210000     -33.50800000     -71.52380000
S      -43.62930000     -32.38340000     -75.37020000
S      -41.82730000     -33.70970000     -73.13720000
H      -41.87740000     -34.05300000     -70.72710000
