40
Properties=species:S:1:pos:R:3 #=T CELL(abcABC):=T 1.889726e+02=T 90.00000=T Traj:=T positionsangstrom=T Step:=T 0=T Bead:=T pbc="F F F"
C      -42.74720000     -35.29200000     -69.70690000
C      -43.58900000     -34.23780000     -69.89470000
C      -44.98500000     -34.36740000     -69.80720000
C      -45.60860000     -35.57180000     -69.64640000
C      -44.76640000     -36.72610000     -69.53730000
C      -43.34690000     -36.58430000     -69.46440000
H      -41.68920000     -35.20820000     -69.77350000
H      -45.57340000     -33.52780000     -70.00170000
H      -45.17200000     -37.76470000     -69.46680000
H      -42.70640000     -37.45550000     -69.25090000
C      -47.10930000     -35.57970000     -69.70620000
H      -47.49450000     -34.58760000     -69.48570000
H      -47.51150000     -36.19780000     -68.91480000
C      -42.98080000     -32.82880000     -70.26100000
H      -43.68000000     -31.98550000     -70.37270000
H      -42.26950000     -32.52830000     -69.49130000
S      -47.86170000     -35.98770000     -71.31790000
S      -41.77620000     -32.92980000     -71.67150000
C      -46.68390000     -35.56770000     -72.66090000
H      -45.64790000     -35.53950000     -72.22300000
H      -46.83010000     -36.45130000     -73.33250000
C      -42.82080000     -33.63580000     -73.02670000
H      -43.31350000     -34.51930000     -72.58750000
H      -42.12750000     -34.03560000     -73.79420000
C      -43.84740000     -32.65420000     -73.70390000
H      -43.24800000     -32.10440000     -74.38630000
H      -44.46210000     -33.37280000     -74.27410000
C      -46.97860000     -34.23270000     -73.43390000
H      -47.97840000     -34.28840000     -73.99960000
H      -46.15610000     -34.18540000     -74.21330000
C      -47.07960000     -33.01620000     -72.49780000
C      -48.16180000     -32.75050000     -71.70880000
C      -46.05360000     -31.96920000     -72.38310000
H      -49.10840000     -33.27800000     -71.74880000
C      -46.38410000     -31.06400000     -71.34860000
C      -44.62620000     -31.76720000     -72.79950000
C      -44.07720000     -30.61780000     -72.29710000
S      -47.97610000     -31.42170000     -70.61600000
S      -45.23120000     -29.82290000     -71.20860000
H      -43.00680000     -30.39720000     -72.21600000
