40
Properties=species:S:1:pos:R:3 #=T CELL(abcABC):=T 1.889726e+02=T 90.00000=T Traj:=T positionsangstrom=T Step:=T 0=T Bead:=T pbc="F F F"
C      -41.63910000     -32.61430000     -71.54000000
C      -42.75450000     -33.49960000     -71.69710000
C      -43.65430000     -33.18370000     -72.76780000
C      -43.36910000     -32.19260000     -73.69430000
C      -42.27980000     -31.38740000     -73.51550000
C      -41.37420000     -31.63950000     -72.44180000
H      -41.00400000     -32.73530000     -70.67730000
H      -44.36170000     -33.94190000     -73.11590000
H      -41.98920000     -30.60010000     -74.18510000
H      -40.58200000     -30.94310000     -72.35970000
C      -44.41090000     -31.90880000     -74.73790000
H      -44.62100000     -32.83790000     -75.36020000
H      -43.99140000     -31.11800000     -75.42340000
C      -43.04860000     -34.63580000     -70.75480000
H      -44.04830000     -35.08540000     -71.05630000
H      -42.26900000     -35.41750000     -70.74940000
S      -46.10430000     -31.35410000     -74.14280000
S      -43.09180000     -34.14470000     -68.94640000
C      -46.03710000     -31.08500000     -72.31930000
H      -45.33420000     -31.78440000     -71.81300000
H      -45.90950000     -30.00750000     -72.18940000
C      -43.87190000     -32.49640000     -69.06260000
H      -43.59300000     -32.19460000     -69.98710000
H      -43.35930000     -31.92140000     -68.22250000
C      -45.39230000     -32.45540000     -68.86680000
H      -45.57690000     -32.29330000     -67.85690000
H      -45.70730000     -31.50470000     -69.46690000
C      -47.36370000     -31.55750000     -71.65710000
H      -48.07940000     -31.12120000     -72.36690000
H      -47.38380000     -31.03530000     -70.71130000
C      -47.46030000     -33.07540000     -71.59760000
C      -48.11850000     -33.78060000     -72.52980000
C      -46.98570000     -33.87410000     -70.44590000
H      -48.80950000     -33.43480000     -73.30070000
C      -47.45500000     -35.18580000     -70.56830000
C      -46.28950000     -33.56540000     -69.18630000
C      -46.37660000     -34.60290000     -68.26680000
S      -48.12600000     -35.60070000     -72.12150000
S      -47.17860000     -36.04580000     -69.04880000
H      -45.94110000     -34.64890000     -67.30140000
