40
Properties=species:S:1:pos:R:3 #=T CELL(abcABC):=T 1.889726e+02=T 90.00000=T Traj:=T positionsangstrom=T Step:=T 0=T Bead:=T pbc="F F F"
C      -49.70230000     -35.57160000     -70.01290000
C      -48.60490000     -34.69700000     -70.07590000
C      -47.79170000     -34.61850000     -71.22990000
C      -48.09240000     -35.34210000     -72.34720000
C      -49.19140000     -36.21480000     -72.33760000
C      -49.89010000     -36.38930000     -71.16950000
H      -50.35480000     -35.58430000     -69.13310000
H      -47.00440000     -33.82170000     -71.34880000
H      -49.48840000     -36.80960000     -73.22110000
H      -50.76130000     -37.11190000     -71.15600000
C      -47.48490000     -35.05290000     -73.72440000
H      -48.14860000     -34.37520000     -74.39780000
H      -47.35120000     -35.92570000     -74.33440000
C      -48.09760000     -34.02870000     -68.78670000
H      -48.84530000     -34.15420000     -68.01050000
H      -47.21670000     -34.51010000     -68.42530000
S      -45.84690000     -34.13760000     -73.69410000
S      -47.75570000     -32.17130000     -68.87550000
C      -44.89420000     -35.31190000     -72.67410000
H      -45.51800000     -36.20150000     -72.61160000
H      -43.96640000     -35.53810000     -73.31570000
C      -45.93010000     -32.04230000     -69.41110000
H      -45.38180000     -32.88070000     -69.04830000
H      -45.63540000     -31.21420000     -68.74110000
C      -45.66170000     -31.76610000     -70.88520000
H      -45.99730000     -32.65090000     -71.39080000
H      -46.32010000     -30.93450000     -71.20530000
C      -44.23950000     -34.83850000     -71.34700000
H      -43.93580000     -35.75990000     -70.90390000
H      -44.89200000     -34.33230000     -70.66270000
C      -43.10520000     -33.96150000     -71.49150000
C      -41.84290000     -34.39640000     -71.64530000
C      -43.15860000     -32.47350000     -71.34790000
H      -41.66160000     -35.40190000     -71.67910000
C      -41.91840000     -31.91650000     -71.49360000
C      -44.16760000     -31.46490000     -71.09730000
C      -43.63260000     -30.20210000     -71.03040000
S      -40.61240000     -33.03640000     -71.76710000
S      -41.90560000     -30.16140000     -71.43350000
H      -44.02050000     -29.32050000     -70.70290000
