40
Properties=species:S:1:pos:R:3 #=T CELL(abcABC):=T 1.889726e+02=T 90.00000=T Traj:=T positionsangstrom=T Step:=T 0=T Bead:=T pbc="F F F"
C      -43.32340000     -32.90710000     -74.58240000
C      -44.07080000     -33.96160000     -74.09940000
C      -43.46490000     -34.84010000     -73.17010000
C      -42.24890000     -34.53480000     -72.55260000
C      -41.52950000     -33.40800000     -72.95940000
C      -42.02280000     -32.68080000     -74.10090000
H      -43.55460000     -32.27890000     -75.46310000
H      -44.04290000     -35.61200000     -72.74700000
H      -40.50340000     -33.14030000     -72.75730000
H      -41.41320000     -31.94920000     -74.67580000
C      -41.68540000     -35.38640000     -71.43010000
H      -41.10020000     -34.83170000     -70.69320000
H      -40.94590000     -36.06620000     -71.84140000
C      -45.35110000     -34.30630000     -74.81580000
H      -45.05560000     -34.62070000     -75.82620000
H      -45.78510000     -35.20780000     -74.33890000
S      -42.89330000     -36.52010000     -70.59830000
S      -46.56100000     -32.97200000     -75.16710000
C      -43.96280000     -35.51970000     -69.43150000
H      -44.67250000     -36.30840000     -69.13240000
H      -43.27570000     -35.19630000     -68.58660000
C      -47.35040000     -32.32090000     -73.60940000
H      -48.33980000     -32.75460000     -73.60580000
H      -47.53020000     -31.27960000     -73.82460000
C      -46.59650000     -32.59590000     -72.32540000
H      -46.39760000     -33.70500000     -72.26490000
H      -45.65730000     -32.09100000     -72.32290000
C      -44.65800000     -34.33930000     -70.09780000
H      -45.16490000     -34.68600000     -70.98660000
H      -43.92280000     -33.60230000     -70.41100000
C      -45.63730000     -33.55940000     -69.15610000
C      -45.66630000     -33.60850000     -67.75480000
C      -46.61940000     -32.64230000     -69.71590000
H      -45.19680000     -34.14920000     -67.02220000
C      -47.25990000     -31.93070000     -68.67440000
C      -47.17460000     -32.13260000     -71.00710000
C      -48.17600000     -31.27470000     -70.87640000
S      -46.94440000     -32.58210000     -67.11910000
S      -48.54240000     -30.81200000     -69.23470000
H      -48.89840000     -30.90760000     -71.61110000
