40
Properties=species:S:1:pos:R:3 #=T CELL(abcABC):=T 1.889726e+02=T 90.00000=T Traj:=T positionsangstrom=T Step:=T 0=T Bead:=T pbc="F F F"
C      -43.18970000     -32.77020000     -74.24280000
C      -44.06270000     -33.91690000     -74.13520000
C      -43.57760000     -34.91900000     -73.25020000
C      -42.37780000     -34.81660000     -72.48920000
C      -41.63690000     -33.64010000     -72.65860000
C      -41.95710000     -32.59990000     -73.59090000
H      -43.47090000     -32.17620000     -75.16000000
H      -44.04110000     -35.91460000     -73.13710000
H      -40.72130000     -33.48480000     -72.08080000
H      -41.43950000     -31.57320000     -73.56120000
C      -41.90410000     -35.91240000     -71.60820000
H      -41.09990000     -35.46340000     -71.02240000
H      -41.41730000     -36.70060000     -72.20990000
C      -45.27170000     -34.14670000     -75.07690000
H      -44.93320000     -34.38840000     -76.09350000
H      -45.86490000     -35.08470000     -74.76120000
S      -43.12960000     -36.71090000     -70.46140000
S      -46.39250000     -32.69000000     -75.28130000
C      -43.79820000     -35.30910000     -69.41030000
H      -44.19960000     -35.78240000     -68.52020000
H      -42.99560000     -34.69180000     -69.03470000
C      -46.71030000     -31.86710000     -73.58560000
H      -47.77110000     -31.52410000     -73.59450000
H      -46.09190000     -30.94000000     -73.51680000
C      -46.59730000     -32.83360000     -72.37580000
H      -47.35060000     -33.60120000     -72.56530000
H      -45.70730000     -33.30970000     -72.41490000
C      -44.84760000     -34.40350000     -70.12130000
H      -45.60640000     -34.97220000     -70.64400000
H      -44.33920000     -33.78900000     -70.89810000
C      -45.68190000     -33.52570000     -69.24620000
C      -45.80060000     -33.60880000     -67.88490000
C      -46.70460000     -32.59360000     -69.76480000
H      -45.12140000     -34.24010000     -67.28090000
C      -47.46380000     -32.03750000     -68.70980000
C      -46.99030000     -32.11050000     -71.10500000
C      -47.95230000     -31.14230000     -70.96190000
S      -47.06460000     -32.58550000     -67.10350000
S      -48.48190000     -30.82520000     -69.32020000
H      -48.48800000     -30.68500000     -71.80520000
