40
Properties=species:S:1:pos:R:3 #=T CELL(abcABC):=T 1.889726e+02=T 90.00000=T Traj:=T positionsangstrom=T Step:=T 0=T Bead:=T pbc="F F F"
C      -43.06000000     -32.05440000     -73.79520000
C      -43.64000000     -33.32670000     -74.11850000
C      -43.20560000     -34.50270000     -73.47070000
C      -42.32080000     -34.40160000     -72.40900000
C      -41.78230000     -33.13270000     -72.03540000
C      -42.27820000     -31.98260000     -72.67950000
H      -43.28790000     -31.20860000     -74.48440000
H      -43.68470000     -35.51430000     -73.56760000
H      -41.10160000     -33.03320000     -71.19330000
H      -41.90540000     -30.99980000     -72.41150000
C      -41.79850000     -35.61610000     -71.62420000
H      -41.12740000     -35.31770000     -70.80370000
H      -41.23270000     -36.22510000     -72.31430000
C      -44.65190000     -33.42360000     -75.25540000
H      -44.16600000     -33.21770000     -76.22990000
H      -44.93230000     -34.46560000     -75.31540000
S      -43.21250000     -36.76760000     -70.91800000
S      -46.15280000     -32.45010000     -75.10010000
C      -43.90040000     -35.47400000     -69.76240000
H      -44.26220000     -36.10280000     -68.87420000
H      -43.16280000     -34.84820000     -69.25270000
C      -46.46520000     -31.97480000     -73.28860000
H      -47.05870000     -31.00490000     -73.39810000
H      -45.53820000     -31.93970000     -72.78250000
C      -47.31160000     -33.05140000     -72.56820000
H      -48.28920000     -33.12040000     -73.15550000
H      -46.76200000     -33.97280000     -72.53010000
C      -45.09550000     -34.77000000     -70.42330000
H      -45.76350000     -35.44610000     -70.87990000
H      -44.79870000     -34.18480000     -71.26350000
C      -45.78330000     -33.91100000     -69.45070000
C      -45.47860000     -33.69620000     -68.10440000
C      -46.87970000     -33.03250000     -69.84970000
H      -44.77540000     -34.23890000     -67.55410000
C      -47.36030000     -32.25480000     -68.77250000
C      -47.52140000     -32.72870000     -71.06460000
C      -48.73240000     -31.96940000     -70.82910000
S      -46.59930000     -32.62830000     -67.26840000
S      -48.80790000     -31.34270000     -69.16900000
H      -49.40140000     -31.62020000     -71.62870000
