40
Properties=species:S:1:pos:R:3 #=T CELL(abcABC):=T 1.889726e+02=T 90.00000=T Traj:=T positionsangstrom=T Step:=T 0=T Bead:=T pbc="F F F"
C      -42.97590000     -34.73860000     -68.53420000
C      -43.74070000     -33.87900000     -69.38880000
C      -44.82840000     -34.43090000     -70.13230000
C      -44.97380000     -35.84510000     -70.25890000
C      -44.17930000     -36.66380000     -69.41790000
C      -43.19260000     -36.15640000     -68.62070000
H      -42.19220000     -34.29190000     -67.86750000
H      -45.54820000     -33.76270000     -70.64350000
H      -44.34300000     -37.70390000     -69.53530000
H      -42.53820000     -36.89590000     -68.04390000
C      -45.99490000     -36.46930000     -71.08010000
H      -47.02570000     -35.93460000     -71.00620000
H      -46.22740000     -37.46110000     -70.70770000
C      -43.55480000     -32.38900000     -69.42600000
H      -44.53510000     -31.92940000     -69.72500000
H      -43.22020000     -31.90400000     -68.45740000
S      -45.53830000     -36.59850000     -72.86700000
S      -42.26790000     -31.81440000     -70.62800000
C      -44.65490000     -35.01460000     -73.34320000
H      -44.16070000     -34.67140000     -72.43850000
H      -43.85740000     -35.27150000     -74.13230000
C      -43.05600000     -32.12100000     -72.19550000
H      -43.66920000     -32.97390000     -72.04830000
H      -42.33490000     -32.50750000     -72.92020000
C      -43.96920000     -31.09840000     -72.83080000
H      -43.55890000     -30.07630000     -72.74630000
H      -44.12300000     -31.47950000     -73.82980000
C      -45.67750000     -33.91920000     -74.03820000
H      -46.20490000     -34.52010000     -74.75010000
H      -45.07690000     -33.29690000     -74.64300000
C      -46.61700000     -33.29010000     -73.07140000
C      -47.83570000     -33.86240000     -72.77710000
C      -46.43440000     -32.01930000     -72.33450000
H      -48.21760000     -34.83990000     -73.10610000
C      -47.44320000     -31.77720000     -71.38600000
C      -45.33430000     -31.13820000     -72.16070000
C      -45.57300000     -30.11790000     -71.23560000
S      -48.75970000     -32.95500000     -71.53350000
S      -47.15050000     -30.39120000     -70.46450000
H      -45.00580000     -29.20150000     -71.02830000
