40
Properties=species:S:1:pos:R:3 #=T CELL(abcABC):=T 1.889726e+02=T 90.00000=T Traj:=T positionsangstrom=T Step:=T 0=T Bead:=T pbc="F F F"
C      -43.23460000     -32.16830000     -73.70630000
C      -43.76790000     -33.41680000     -74.07970000
C      -43.39630000     -34.60150000     -73.47890000
C      -42.36030000     -34.55520000     -72.45410000
C      -41.79370000     -33.34100000     -72.08070000
C      -42.26380000     -32.11980000     -72.69310000
H      -43.62870000     -31.32670000     -74.17800000
H      -43.99820000     -35.45110000     -73.70390000
H      -41.01250000     -33.36560000     -71.30180000
H      -41.80650000     -31.21830000     -72.30380000
C      -41.88430000     -35.87980000     -71.84620000
H      -40.95850000     -35.66600000     -71.31730000
H      -41.60190000     -36.59010000     -72.65490000
C      -44.84910000     -33.59560000     -75.16900000
H      -44.42820000     -33.22120000     -76.06820000
H      -45.10000000     -34.66900000     -75.34210000
S      -43.11670000     -36.79980000     -70.81890000
S      -46.22670000     -32.42010000     -75.09770000
C      -43.84250000     -35.59050000     -69.61010000
H      -44.17390000     -36.22690000     -68.80590000
H      -43.07550000     -34.88540000     -69.24390000
C      -46.60060000     -32.10700000     -73.26970000
H      -47.06540000     -31.13820000     -73.23850000
H      -45.53900000     -32.13740000     -72.78900000
C      -47.33370000     -33.21240000     -72.51730000
H      -48.26480000     -33.37700000     -73.05650000
H      -46.83420000     -34.25900000     -72.54550000
C      -45.05630000     -34.94950000     -70.29170000
H      -45.70010000     -35.73010000     -70.65520000
H      -44.69820000     -34.44310000     -71.18330000
C      -45.82170000     -33.90160000     -69.44210000
C      -45.56530000     -33.75340000     -68.12790000
C      -46.90370000     -32.93460000     -69.89590000
H      -44.91580000     -34.17970000     -67.34160000
C      -47.34410000     -32.20680000     -68.80870000
C      -47.57380000     -32.61890000     -71.11380000
C      -48.54610000     -31.62710000     -70.89090000
S      -46.59650000     -32.46560000     -67.27910000
S      -48.48200000     -30.94060000     -69.27630000
H      -49.21040000     -31.26280000     -71.68610000
