40
Properties=species:S:1:pos:R:3 #=T CELL(abcABC):=T 1.889726e+02=T 90.00000=T Traj:=T positionsangstrom=T Step:=T 0=T Bead:=T pbc="F F F"
C      -43.26620000     -32.85060000     -74.40320000
C      -44.07360000     -33.94060000     -74.16300000
C      -43.53900000     -34.87270000     -73.22600000
C      -42.34710000     -34.71710000     -72.57950000
C      -41.62190000     -33.53960000     -72.77630000
C      -42.08740000     -32.67020000     -73.72120000
H      -43.66210000     -32.08730000     -75.09300000
H      -44.09220000     -35.71560000     -72.99110000
H      -40.76570000     -33.48100000     -72.22070000
H      -41.36050000     -31.81650000     -73.94040000
C      -41.93250000     -35.73980000     -71.57130000
H      -41.06460000     -35.29840000     -71.01220000
H      -41.49960000     -36.52060000     -72.17580000
C      -45.32410000     -34.22750000     -74.89770000
H      -45.06110000     -34.60420000     -75.91670000
H      -45.90110000     -35.02960000     -74.47750000
S      -43.09950000     -36.70180000     -70.44550000
S      -46.38820000     -32.71360000     -75.14930000
C      -43.83300000     -35.34580000     -69.30510000
H      -44.27740000     -35.95650000     -68.55840000
H      -42.95730000     -34.77650000     -68.90480000
C      -46.73200000     -31.83130000     -73.60840000
H      -47.70940000     -31.51900000     -73.71380000
H      -46.20250000     -30.84900000     -73.59300000
C      -46.43660000     -32.65350000     -72.38610000
H      -46.84660000     -33.69400000     -72.48710000
H      -45.32930000     -32.72880000     -72.27910000
C      -44.83460000     -34.45560000     -70.07970000
H      -45.40150000     -35.21040000     -70.64220000
H      -44.20450000     -33.92690000     -70.80970000
C      -45.80670000     -33.60780000     -69.29230000
C      -45.81620000     -33.64320000     -67.89840000
C      -46.72570000     -32.62840000     -69.73600000
H      -45.16090000     -34.34220000     -67.30330000
C      -47.45050000     -32.03320000     -68.73850000
C      -47.04390000     -32.14170000     -71.01890000
C      -48.08020000     -31.20830000     -71.04080000
S      -46.91020000     -32.55690000     -67.14200000
S      -48.53140000     -30.86270000     -69.35750000
H      -48.50900000     -30.58310000     -71.79480000
