40
Properties=species:S:1:pos:R:3 #=T CELL(abcABC):=T 1.889726e+02=T 90.00000=T Traj:=T positionsangstrom=T Step:=T 0=T Bead:=T pbc="F F F"
C      -42.87740000     -34.70120000     -68.64940000
C      -43.73530000     -33.91000000     -69.43310000
C      -44.78510000     -34.41010000     -70.20110000
C      -44.98740000     -35.76510000     -70.19820000
C      -44.10680000     -36.64340000     -69.47630000
C      -43.16570000     -36.06840000     -68.61270000
H      -42.00720000     -34.05230000     -68.22610000
H      -45.48180000     -33.72260000     -70.72310000
H      -44.17880000     -37.71020000     -69.51580000
H      -42.67400000     -36.63470000     -67.84680000
C      -46.05880000     -36.37150000     -71.07590000
H      -46.90080000     -35.71570000     -70.95420000
H      -46.27950000     -37.36880000     -70.63050000
C      -43.59780000     -32.37830000     -69.41280000
H      -44.55320000     -31.90980000     -69.56990000
H      -43.26870000     -32.01050000     -68.50250000
S      -45.73970000     -36.78960000     -72.86530000
S      -42.42500000     -31.66280000     -70.59250000
C      -44.84620000     -35.18710000     -73.39270000
H      -44.24380000     -34.92950000     -72.55240000
H      -44.13700000     -35.59910000     -74.09200000
C      -42.93190000     -32.22550000     -72.35120000
H      -43.23530000     -33.34820000     -72.37550000
H      -41.95340000     -32.13060000     -72.79700000
C      -43.95260000     -31.33850000     -72.95140000
H      -43.54800000     -30.27140000     -72.95900000
H      -44.15180000     -31.59790000     -73.98480000
C      -45.71960000     -34.03930000     -74.01040000
H      -46.39780000     -34.40950000     -74.82370000
H      -45.13250000     -33.16690000     -74.40540000
C      -46.64830000     -33.30830000     -73.02480000
C      -47.88040000     -33.78900000     -72.62090000
C      -46.21460000     -32.13420000     -72.20150000
H      -48.35440000     -34.64790000     -73.03880000
C      -47.31470000     -31.78120000     -71.36960000
C      -45.22340000     -31.18380000     -72.15120000
C      -45.51980000     -30.09980000     -71.34180000
S      -48.73970000     -32.85000000     -71.43440000
S      -47.00560000     -30.31160000     -70.49800000
H      -44.78270000     -29.29090000     -70.99800000
