40
Properties=species:S:1:pos:R:3 #=T CELL(abcABC):=T 1.889726e+02=T 90.00000=T Traj:=T positionsangstrom=T Step:=T 0=T Bead:=T pbc="F F F"
C      -43.12020000     -31.76850000     -73.91960000
C      -43.66030000     -33.05700000     -74.04150000
C      -43.09940000     -34.05480000     -73.28570000
C      -42.00030000     -33.84330000     -72.45610000
C      -41.50360000     -32.53320000     -72.31210000
C      -42.00700000     -31.49480000     -73.11930000
H      -43.42410000     -30.90260000     -74.53370000
H      -43.55200000     -35.09170000     -73.41930000
H      -40.72180000     -32.38810000     -71.56520000
H      -41.57550000     -30.50590000     -72.93630000
C      -41.43400000     -34.99510000     -71.65020000
H      -40.87060000     -34.54340000     -70.81210000
H      -40.68160000     -35.52090000     -72.25570000
C      -44.73970000     -33.38110000     -75.01540000
H      -44.44990000     -33.46800000     -76.06330000
H      -45.14670000     -34.34540000     -74.82110000
S      -42.56440000     -36.22090000     -70.95250000
S      -45.97560000     -32.06380000     -74.96080000
C      -43.61410000     -35.21430000     -69.76420000
H      -43.92080000     -35.96750000     -69.08690000
H      -42.97850000     -34.52900000     -69.17670000
C      -46.42470000     -31.73980000     -73.16700000
H      -47.18110000     -30.97050000     -73.31510000
H      -45.54840000     -31.41700000     -72.54500000
C      -47.06000000     -33.00510000     -72.46140000
H      -47.92480000     -33.38200000     -73.06810000
H      -46.31270000     -33.73240000     -72.46720000
C      -44.73650000     -34.47580000     -70.44790000
H      -45.30680000     -35.11410000     -71.16750000
H      -44.42790000     -33.58730000     -70.98850000
C      -45.84910000     -33.95680000     -69.50430000
C      -45.83830000     -34.24040000     -68.16890000
C      -47.04930000     -33.26460000     -69.88490000
H      -45.02180000     -34.72180000     -67.59570000
C      -47.85670000     -32.98000000     -68.75340000
C      -47.64300000     -32.76450000     -71.07250000
C      -48.87960000     -32.14520000     -70.83950000
S      -47.23890000     -33.67360000     -67.24700000
S      -49.35990000     -32.26340000     -69.16240000
H      -49.49010000     -31.87410000     -71.72250000
