40
Properties=species:S:1:pos:R:3 #=T CELL(abcABC):=T 1.889726e+02=T 90.00000=T Traj:=T positionsangstrom=T Step:=T 0=T Bead:=T pbc="F F F"
C      -44.44600000     -35.54580000     -72.33770000
C      -45.23660000     -36.00700000     -71.31620000
C      -46.63580000     -35.70960000     -71.43050000
C      -47.18310000     -34.90650000     -72.40210000
C      -46.23430000     -34.33570000     -73.37720000
C      -44.93160000     -34.67220000     -73.33360000
H      -43.37620000     -35.85230000     -72.43140000
H      -47.35190000     -36.14230000     -70.68840000
H      -46.50410000     -33.71390000     -74.17610000
H      -44.28220000     -34.41790000     -74.17900000
C      -48.69300000     -34.52580000     -72.43520000
H      -49.06440000     -34.66970000     -71.39140000
H      -49.26030000     -35.03100000     -73.15220000
C      -44.79700000     -36.92100000     -70.21140000
H      -45.37010000     -37.81080000     -70.25760000
H      -43.87500000     -37.33570000     -70.40310000
S      -49.00200000     -32.77760000     -72.82900000
S      -45.03080000     -36.31660000     -68.46930000
C      -48.46730000     -31.71590000     -71.24700000
H      -48.58440000     -30.69660000     -71.63190000
H      -49.14780000     -31.90630000     -70.42010000
C      -43.93610000     -34.83230000     -68.32760000
H      -43.12710000     -35.07320000     -69.02150000
H      -43.55870000     -34.63980000     -67.32760000
C      -44.63530000     -33.60950000     -68.93440000
H      -45.46100000     -34.01820000     -69.51100000
H      -45.06350000     -33.06130000     -68.04070000
C      -47.10020000     -31.93960000     -70.61770000
H      -47.13630000     -32.89490000     -70.17380000
H      -47.03780000     -31.28490000     -69.72560000
C      -45.83530000     -31.58500000     -71.38230000
C      -45.78700000     -30.80900000     -72.52610000
C      -44.44920000     -31.82570000     -70.90200000
H      -46.59290000     -30.53980000     -73.24050000
C      -43.47240000     -31.34920000     -71.78260000
C      -43.85440000     -32.67260000     -69.92610000
C      -42.44670000     -32.63830000     -69.95560000
S      -44.05990000     -30.57000000     -73.24680000
S      -41.81470000     -31.73110000     -71.25850000
H      -41.64030000     -33.21820000     -69.42980000
