40
Properties=species:S:1:pos:R:3 #=T CELL(abcABC):=T 1.889726e+02=T 90.00000=T Traj:=T positionsangstrom=T Step:=T 0=T Bead:=T pbc="F F F"
C      -41.45730000     -33.52600000     -70.47370000
C      -42.75550000     -33.83810000     -70.91600000
C      -43.66330000     -32.90090000     -71.47710000
C      -43.16390000     -31.56570000     -71.65450000
C      -41.93460000     -31.23910000     -71.01560000
C      -41.03370000     -32.15340000     -70.42230000
H      -40.82660000     -34.37230000     -70.13220000
H      -44.48480000     -33.19060000     -72.10480000
H      -41.59310000     -30.24780000     -71.15430000
H      -40.09180000     -31.72120000     -69.99600000
C      -43.95420000     -30.58510000     -72.47890000
H      -44.34960000     -31.05560000     -73.38730000
H      -43.33860000     -29.80800000     -72.89200000
C      -43.29740000     -35.24070000     -70.81760000
H      -44.09080000     -35.24730000     -71.50880000
H      -42.51910000     -35.96260000     -71.07710000
S      -45.31160000     -29.72820000     -71.66060000
S      -44.01480000     -35.72310000     -69.13740000
C      -45.96870000     -30.85250000     -70.36180000
H      -45.30550000     -31.57850000     -69.99040000
H      -46.04010000     -30.31360000     -69.42400000
C      -45.04340000     -34.23340000     -68.71340000
H      -44.64390000     -33.39790000     -69.36260000
H      -44.86680000     -33.91010000     -67.73720000
C      -46.54880000     -34.44930000     -69.00680000
H      -46.99680000     -35.22100000     -68.29350000
H      -47.15170000     -33.57960000     -68.87770000
C      -47.33710000     -31.49990000     -70.70600000
H      -47.95740000     -30.60970000     -70.94090000
H      -47.78420000     -31.87770000     -69.80690000
C      -47.13010000     -32.53540000     -71.80120000
C      -47.33820000     -32.17650000     -73.09740000
C      -47.01870000     -33.97970000     -71.59530000
H      -47.41750000     -31.19640000     -73.50680000
C      -47.30860000     -34.66700000     -72.74060000
C      -46.81780000     -34.87460000     -70.42580000
C      -46.89820000     -36.19270000     -70.82050000
S      -47.54830000     -33.60170000     -74.08790000
S      -47.21470000     -36.44060000     -72.54100000
H      -46.79620000     -36.95890000     -70.08950000
