40
Properties=species:S:1:pos:R:3 #=T CELL(abcABC):=T 1.889726e+02=T 90.00000=T Traj:=T positionsangstrom=T Step:=T 0=T Bead:=T pbc="F F F"
C      -42.90450000     -31.82360000     -74.03260000
C      -43.53710000     -33.06630000     -74.21070000
C      -42.97210000     -34.14400000     -73.53310000
C      -41.96170000     -33.92550000     -72.51180000
C      -41.53830000     -32.62510000     -72.25770000
C      -41.93170000     -31.58220000     -73.10730000
H      -43.22880000     -31.04250000     -74.71510000
H      -43.37380000     -35.22360000     -73.63090000
H      -40.81160000     -32.52280000     -71.46300000
H      -41.68770000     -30.54030000     -72.98970000
C      -41.37240000     -34.93470000     -71.59290000
H      -40.77110000     -34.50880000     -70.79030000
H      -40.70100000     -35.62740000     -72.14420000
C      -44.71390000     -33.19760000     -75.16680000
H      -44.43080000     -33.13950000     -76.23940000
H      -45.18690000     -34.19760000     -74.92220000
S      -42.56160000     -36.21410000     -70.88540000
S      -46.12070000     -31.96760000     -74.81490000
C      -43.71180000     -35.30410000     -69.73580000
H      -44.16670000     -36.04140000     -69.06510000
H      -43.16070000     -34.69130000     -69.02000000
C      -46.16170000     -31.96430000     -72.99720000
H      -46.47160000     -30.94660000     -72.59410000
H      -45.24310000     -32.15740000     -72.49350000
C      -47.13100000     -33.10760000     -72.51270000
H      -47.95720000     -33.17110000     -73.21050000
H      -46.64010000     -34.13620000     -72.62290000
C      -44.88820000     -34.53150000     -70.42380000
H      -45.31060000     -35.23850000     -71.11570000
H      -44.40830000     -33.74320000     -71.02390000
C      -45.90980000     -33.97100000     -69.47490000
C      -45.81690000     -34.10880000     -68.10330000
C      -47.15810000     -33.32210000     -69.82550000
H      -45.07650000     -34.64590000     -67.54160000
C      -47.93390000     -33.00160000     -68.75030000
C      -47.68740000     -32.92930000     -71.12520000
C      -48.90510000     -32.30250000     -70.94220000
S      -47.21670000     -33.47370000     -67.22580000
S      -49.35930000     -32.17840000     -69.23840000
H      -49.44150000     -31.77880000     -71.74920000
