40
Properties=species:S:1:pos:R:3 #=T CELL(abcABC):=T 1.889726e+02=T 90.00000=T Traj:=T positionsangstrom=T Step:=T 0=T Bead:=T pbc="F F F"
C      -41.68460000     -33.12190000     -70.64190000
C      -42.90330000     -33.76180000     -71.01770000
C      -43.74670000     -33.12960000     -71.88910000
C      -43.50550000     -31.86050000     -72.34840000
C      -42.33830000     -31.20540000     -72.06350000
C      -41.34210000     -31.90440000     -71.20790000
H      -41.05520000     -33.60170000     -69.94310000
H      -44.63520000     -33.72410000     -72.21710000
H      -42.07520000     -30.21360000     -72.40590000
H      -40.55190000     -31.24460000     -70.78700000
C      -44.59260000     -31.19190000     -73.13770000
H      -45.30000000     -31.93230000     -73.56700000
H      -44.18180000     -30.75640000     -74.04000000
C      -43.25920000     -35.16910000     -70.57480000
H      -43.99050000     -35.58450000     -71.32510000
H      -42.34310000     -35.79240000     -70.65390000
S      -45.34180000     -29.85060000     -72.15250000
S      -43.85670000     -35.23740000     -68.75590000
C      -45.68180000     -30.70630000     -70.53220000
H      -44.76730000     -31.24620000     -70.28400000
H      -45.56730000     -29.91010000     -69.75110000
C      -45.10010000     -33.84740000     -68.73230000
H      -44.92490000     -33.20990000     -69.64980000
H      -44.88140000     -33.17480000     -67.91240000
C      -46.54230000     -34.33650000     -68.68200000
H      -46.54630000     -35.09230000     -67.88490000
H      -47.25810000     -33.57900000     -68.42540000
C      -47.07600000     -31.41390000     -70.57920000
H      -47.85490000     -30.66200000     -70.89930000
H      -47.42340000     -31.71760000     -69.56200000
C      -47.21250000     -32.60560000     -71.51650000
C      -47.57360000     -32.39400000     -72.84070000
C      -47.00040000     -33.98290000     -71.27750000
H      -47.90810000     -31.40130000     -73.27260000
C      -47.07360000     -34.83030000     -72.40550000
C      -46.78380000     -34.84610000     -70.09090000
C      -46.64810000     -36.18540000     -70.40270000
S      -47.51490000     -33.94000000     -73.78560000
S      -46.81270000     -36.49060000     -72.14020000
H      -46.28600000     -36.81670000     -69.68380000
