40
Properties=species:S:1:pos:R:3 #=T CELL(abcABC):=T 1.889726e+02=T 90.00000=T Traj:=T positionsangstrom=T Step:=T 0=T Bead:=T pbc="F F F"
C      -41.64440000     -34.23490000     -70.00850000
C      -42.71930000     -34.48170000     -70.89770000
C      -43.45500000     -33.37430000     -71.33440000
C      -43.18390000     -32.06940000     -70.87770000
C      -42.04290000     -31.83610000     -70.06770000
C      -41.26000000     -32.96470000     -69.74980000
H      -41.07360000     -35.08960000     -69.71580000
H      -44.24820000     -33.50820000     -71.99610000
H      -41.73210000     -30.82560000     -69.64700000
H      -40.41850000     -32.78100000     -69.07460000
C      -43.98310000     -30.88190000     -71.38470000
H      -44.64130000     -31.15630000     -72.20350000
H      -43.33370000     -30.16300000     -71.84410000
C      -43.15480000     -35.91930000     -71.25300000
H      -43.41190000     -36.01200000     -72.29440000
H      -42.27890000     -36.63540000     -71.32910000
S      -44.81980000     -30.14110000     -69.86690000
S      -44.37260000     -36.71010000     -70.19420000
C      -45.77800000     -31.62520000     -69.20210000
H      -45.14100000     -32.48590000     -69.36110000
H      -45.83680000     -31.41340000     -68.12510000
C      -45.43070000     -35.31410000     -69.49900000
H      -44.90610000     -34.36800000     -69.72620000
H      -45.45600000     -35.46680000     -68.38020000
C      -46.85350000     -35.27680000     -70.05560000
H      -47.38520000     -36.25160000     -70.04450000
H      -47.54680000     -34.62850000     -69.46770000
C      -47.13880000     -31.83080000     -69.80550000
H      -47.92540000     -31.00420000     -69.77310000
H      -47.66940000     -32.69380000     -69.30200000
C      -47.17310000     -32.21680000     -71.30970000
C      -47.44780000     -31.20930000     -72.19530000
C      -46.97540000     -33.44950000     -71.99490000
H      -47.68620000     -30.17270000     -71.91500000
C      -47.08340000     -33.39280000     -73.40420000
C      -46.83810000     -34.79770000     -71.51300000
C      -46.95530000     -35.70040000     -72.58920000
S      -47.59680000     -31.81120000     -73.89010000
S      -47.09260000     -34.95690000     -74.10750000
H      -46.82970000     -36.77650000     -72.45440000
