40
Properties=species:S:1:pos:R:3 #=T CELL(abcABC):=T 1.889726e+02=T 90.00000=T Traj:=T positionsangstrom=T Step:=T 0=T Bead:=T pbc="F F F"
C      -41.84280000     -34.51690000     -70.05100000
C      -42.82580000     -34.52680000     -71.02430000
C      -43.53870000     -33.36130000     -71.14390000
C      -43.21830000     -32.13770000     -70.56220000
C      -42.22690000     -32.15840000     -69.54300000
C      -41.58110000     -33.33070000     -69.34310000
H      -41.39370000     -35.37840000     -69.79010000
H      -44.37920000     -33.38210000     -71.84100000
H      -41.87140000     -31.30530000     -68.95570000
H      -40.73390000     -33.32400000     -68.66200000
C      -43.88100000     -30.80750000     -70.94650000
H      -44.30910000     -30.83540000     -71.95540000
H      -43.14400000     -30.01540000     -70.89880000
C      -43.36800000     -35.82610000     -71.57440000
H      -44.11190000     -35.50280000     -72.32880000
H      -42.55330000     -36.46090000     -71.92800000
S      -45.10090000     -30.21540000     -69.71180000
S      -44.26170000     -36.85740000     -70.39740000
C      -45.81560000     -31.76410000     -69.07070000
H      -45.02500000     -32.46380000     -69.00180000
H      -46.07290000     -31.58170000     -68.03800000
C      -45.47570000     -35.59360000     -69.71280000
H      -45.03110000     -34.50490000     -69.66970000
H      -45.60480000     -35.85220000     -68.59710000
C      -46.82580000     -35.52320000     -70.46930000
H      -47.22320000     -36.57270000     -70.60050000
H      -47.67700000     -35.06600000     -69.85060000
C      -47.08270000     -32.07470000     -69.73700000
H      -47.85550000     -31.37030000     -69.50610000
H      -47.59190000     -32.95060000     -69.26550000
C      -47.01520000     -32.21130000     -71.25080000
C      -47.27450000     -31.11680000     -72.02990000
C      -46.80870000     -33.39760000     -72.08570000
H      -47.40040000     -30.09410000     -71.63600000
C      -46.95020000     -33.10340000     -73.41020000
C      -46.80400000     -34.85260000     -71.83290000
C      -46.83050000     -35.59530000     -72.97670000
S      -47.40910000     -31.47000000     -73.72810000
S      -46.97830000     -34.52240000     -74.39820000
H      -46.77760000     -36.63970000     -73.00900000
