40
Properties=species:S:1:pos:R:3 #=T CELL(abcABC):=T 1.889726e+02=T 90.00000=T Traj:=T positionsangstrom=T Step:=T 0=T Bead:=T pbc="F F F"
C      -43.37380000     -31.29290000     -73.58090000
C      -43.46560000     -32.65030000     -74.07360000
C      -42.87930000     -33.70500000     -73.37480000
C      -42.05250000     -33.43460000     -72.24040000
C      -41.92250000     -32.06960000     -71.82490000
C      -42.60380000     -31.03660000     -72.46630000
H      -43.93370000     -30.45640000     -74.03510000
H      -43.06200000     -34.73230000     -73.57120000
H      -41.20900000     -31.75010000     -71.04850000
H      -42.45250000     -30.02990000     -72.05080000
C      -41.32560000     -34.50050000     -71.55770000
H      -40.74910000     -34.05300000     -70.69950000
H      -40.62570000     -34.91940000     -72.23940000
C      -44.28430000     -32.95460000     -75.31930000
H      -44.20820000     -32.08030000     -75.95270000
H      -43.82700000     -33.77680000     -75.83310000
S      -42.37380000     -35.93420000     -71.01400000
S      -46.15330000     -33.33390000     -75.06560000
C      -43.56650000     -35.02820000     -69.91830000
H      -43.69530000     -35.73310000     -69.04140000
H      -43.13480000     -34.06940000     -69.69070000
C      -46.29790000     -32.96410000     -73.25670000
H      -46.40700000     -31.88270000     -73.24750000
H      -45.33840000     -33.14460000     -72.75190000
C      -47.49270000     -33.65920000     -72.59590000
H      -48.43460000     -33.54360000     -73.23650000
H      -47.25200000     -34.74040000     -72.46670000
C      -44.90620000     -34.64960000     -70.50000000
H      -45.30080000     -35.56450000     -70.92020000
H      -44.70290000     -33.95820000     -71.31000000
C      -45.81840000     -33.99890000     -69.50620000
C      -45.64390000     -33.91270000     -68.09910000
C      -47.05090000     -33.27800000     -69.94880000
H      -44.77760000     -34.42240000     -67.57850000
C      -47.75220000     -32.83440000     -68.80140000
C      -47.83950000     -33.15500000     -71.19520000
C      -49.12040000     -32.69020000     -70.95750000
S      -46.88480000     -33.05150000     -67.25670000
S      -49.38150000     -32.34070000     -69.23540000
H      -49.92360000     -32.36250000     -71.65530000
