40
Properties=species:S:1:pos:R:3 #=T CELL(abcABC):=T 1.889726e+02=T 90.00000=T Traj:=T positionsangstrom=T Step:=T 0=T Bead:=T pbc="F F F"
C      -43.35960000     -31.32020000     -73.56590000
C      -43.52800000     -32.63610000     -73.92120000
C      -42.89190000     -33.69430000     -73.28090000
C      -42.09130000     -33.43200000     -72.20860000
C      -41.86430000     -32.08980000     -71.76230000
C      -42.55500000     -31.07550000     -72.46240000
H      -43.90840000     -30.43630000     -73.91980000
H      -43.03550000     -34.67160000     -73.63680000
H      -41.24680000     -31.83710000     -70.85340000
H      -42.39300000     -30.01790000     -72.27560000
C      -41.25820000     -34.51280000     -71.54020000
H      -40.63480000     -34.06190000     -70.77420000
H      -40.46560000     -34.98330000     -72.18180000
C      -44.35460000     -32.95630000     -75.18360000
H      -44.16240000     -32.33650000     -76.07130000
H      -44.00840000     -33.97160000     -75.56670000
S      -42.32060000     -35.91530000     -71.05380000
S      -46.17340000     -32.98600000     -74.93140000
C      -43.52630000     -35.13060000     -69.81550000
H      -43.62600000     -35.80310000     -68.97050000
H      -43.08190000     -34.25380000     -69.38390000
C      -46.63630000     -32.57360000     -73.24830000
H      -47.22670000     -31.67150000     -73.30750000
H      -45.77780000     -32.47590000     -72.56360000
C      -47.36040000     -33.75380000     -72.57860000
H      -48.13390000     -34.16140000     -73.21010000
H      -46.64930000     -34.52940000     -72.44360000
C      -44.87380000     -34.90550000     -70.41410000
H      -45.42600000     -35.81470000     -70.72490000
H      -44.71130000     -34.29090000     -71.34350000
C      -45.89430000     -34.18440000     -69.58150000
C      -45.68610000     -34.09710000     -68.18560000
C      -47.16950000     -33.58910000     -69.99130000
H      -44.89950000     -34.58300000     -67.64460000
C      -47.77600000     -32.98320000     -68.90870000
C      -47.82930000     -33.27700000     -71.23860000
C      -48.97670000     -32.53230000     -71.05140000
S      -46.97860000     -33.30550000     -67.35220000
S      -49.22750000     -32.07210000     -69.36170000
H      -49.80410000     -32.37690000     -71.72320000
