40
Properties=species:S:1:pos:R:3 #=T CELL(abcABC):=T 1.889726e+02=T 90.00000=T Traj:=T positionsangstrom=T Step:=T 0=T Bead:=T pbc="F F F"
C      -43.39880000     -34.29060000     -73.94280000
C      -43.36980000     -32.90150000     -73.95270000
C      -44.56390000     -32.15780000     -74.18240000
C      -45.74220000     -32.88800000     -74.40490000
C      -45.72140000     -34.31210000     -74.28490000
C      -44.57070000     -35.06420000     -73.99410000
H      -42.52000000     -34.78260000     -73.62680000
H      -44.47230000     -31.16240000     -74.32730000
H      -46.60850000     -34.87880000     -74.34350000
H      -44.64040000     -36.21630000     -73.83360000
C      -47.03380000     -32.22750000     -74.78460000
H      -47.67430000     -33.03350000     -75.17850000
H      -46.91850000     -31.46820000     -75.65610000
C      -42.11040000     -32.13170000     -73.58740000
H      -41.24830000     -32.83020000     -73.63420000
H      -42.00780000     -31.27230000     -74.17890000
S      -47.78750000     -31.11530000     -73.46820000
S      -42.13350000     -31.40880000     -71.86330000
C      -47.95490000     -32.40940000     -72.14070000
H      -48.87070000     -32.19480000     -71.57370000
H      -48.15450000     -33.38150000     -72.61250000
C      -42.74240000     -32.80210000     -70.86870000
H      -41.83890000     -33.33760000     -70.35330000
H      -43.16790000     -33.43350000     -71.66910000
C      -43.68720000     -32.38970000     -69.69060000
H      -43.14270000     -31.82250000     -68.81970000
H      -44.49790000     -31.73330000     -70.03030000
C      -46.78240000     -32.48700000     -71.13190000
H      -46.49290000     -31.58360000     -70.57030000
H      -45.87700000     -32.63320000     -71.73860000
C      -46.88820000     -33.62860000     -70.17340000
C      -47.95660000     -34.44170000     -69.99200000
C      -45.86320000     -33.89750000     -69.21260000
H      -48.72520000     -34.49750000     -70.67810000
C      -46.07970000     -35.04300000     -68.46770000
C      -44.47740000     -33.50760000     -69.01240000
C      -43.83920000     -34.23010000     -68.00240000
S      -47.68340000     -35.72340000     -68.82100000
S      -44.83800000     -35.50490000     -67.34320000
H      -42.79080000     -34.13960000     -67.64590000
