40
Properties=species:S:1:pos:R:3 #=T CELL(abcABC):=T 1.889726e+02=T 90.00000=T Traj:=T positionsangstrom=T Step:=T 0=T Bead:=T pbc="F F F"
C      -41.91000000     -34.51700000     -69.84430000
C      -42.97280000     -34.51020000     -70.82880000
C      -43.57200000     -33.30510000     -71.10360000
C      -43.14730000     -32.07930000     -70.55650000
C      -42.04040000     -32.11590000     -69.71490000
C      -41.50370000     -33.31760000     -69.25370000
H      -41.37620000     -35.36180000     -69.63620000
H      -44.37500000     -33.25210000     -71.78180000
H      -41.67330000     -31.22450000     -69.25340000
H      -40.76320000     -33.29690000     -68.46080000
C      -43.91770000     -30.80370000     -70.96840000
H      -44.49280000     -31.05030000     -71.88550000
H      -43.14150000     -30.03020000     -71.20290000
C      -43.27650000     -35.72540000     -71.60310000
H      -43.74180000     -35.58860000     -72.56150000
H      -42.34590000     -36.30960000     -71.78950000
S      -44.90590000     -30.07960000     -69.58750000
S      -44.44350000     -36.98850000     -70.65800000
C      -45.87720000     -31.50870000     -68.90820000
H      -45.11890000     -32.32260000     -68.51470000
H      -46.34610000     -31.03370000     -68.00010000
C      -45.73950000     -35.90050000     -69.78110000
H      -45.31720000     -34.97470000     -69.63850000
H      -45.96490000     -36.41740000     -68.89410000
C      -47.06350000     -35.78190000     -70.55340000
H      -47.49960000     -36.74950000     -70.85280000
H      -47.67330000     -35.21830000     -69.88490000
C      -47.10000000     -32.17270000     -69.65250000
H      -47.84550000     -31.50190000     -69.29940000
H      -47.16210000     -33.15200000     -69.23030000
C      -47.14850000     -32.28960000     -71.21050000
C      -47.39280000     -31.14380000     -71.96720000
C      -47.13450000     -33.52000000     -72.05890000
H      -47.47520000     -30.17680000     -71.55760000
C      -47.08640000     -33.10920000     -73.34960000
C      -46.80130000     -34.94480000     -71.90380000
C      -46.55800000     -35.54380000     -73.12210000
S      -47.30280000     -31.39510000     -73.65190000
S      -46.77230000     -34.42590000     -74.47780000
H      -46.35370000     -36.57930000     -73.21770000
