40
Properties=species:S:1:pos:R:3 #=T CELL(abcABC):=T 1.889726e+02=T 90.00000=T Traj:=T positionsangstrom=T Step:=T 0=T Bead:=T pbc="F F F"
C      -44.01810000     -31.68430000     -74.19900000
C      -43.72950000     -33.02880000     -74.36640000
C      -42.59850000     -33.62490000     -73.76700000
C      -41.90290000     -32.92990000     -72.75560000
C      -42.30000000     -31.63670000     -72.40510000
C      -43.32610000     -30.98460000     -73.22340000
H      -44.93660000     -31.32690000     -74.72620000
H      -42.33080000     -34.69950000     -73.98110000
H      -41.83570000     -31.05840000     -71.60470000
H      -43.73560000     -30.02830000     -72.87060000
C      -40.91370000     -33.71100000     -71.90630000
H      -40.13100000     -33.14270000     -71.32110000
H      -40.41630000     -34.38280000     -72.59270000
C      -44.57340000     -33.77820000     -75.36030000
H      -44.96270000     -33.15780000     -76.17100000
H      -43.94260000     -34.52990000     -75.81970000
S      -41.71220000     -34.84760000     -70.60310000
S      -46.10570000     -34.56240000     -74.67950000
C      -43.01250000     -33.78950000     -69.72970000
H      -42.94680000     -34.10310000     -68.64830000
H      -42.64260000     -32.71390000     -69.81950000
C      -46.70030000     -33.71720000     -73.15530000
H      -47.38860000     -32.94330000     -73.44640000
H      -45.82290000     -33.27190000     -72.65440000
C      -47.36690000     -34.66180000     -72.08170000
H      -48.17850000     -35.28880000     -72.47190000
H      -46.64650000     -35.39990000     -71.75100000
C      -44.50070000     -33.96920000     -70.27320000
H      -44.64210000     -35.04110000     -70.39870000
H      -44.62280000     -33.58210000     -71.28740000
C      -45.63740000     -33.48400000     -69.39550000
C      -45.53490000     -33.13420000     -68.02600000
C      -47.07400000     -33.35600000     -69.81920000
H      -44.59340000     -32.85040000     -67.61920000
C      -47.91260000     -32.94760000     -68.78640000
C      -47.86760000     -33.89850000     -70.89830000
C      -49.19070000     -33.68910000     -70.71960000
S      -47.03660000     -32.37890000     -67.42650000
S      -49.63040000     -32.78220000     -69.20530000
H      -49.96860000     -34.01470000     -71.38860000
