40
Properties=species:S:1:pos:R:3 #=T CELL(abcABC):=T 1.889726e+02=T 90.00000=T Traj:=T positionsangstrom=T Step:=T 0=T Bead:=T pbc="F F F"
C      -48.12820000     -36.59000000     -70.55530000
C      -48.27980000     -35.47770000     -71.41570000
C      -47.41400000     -35.45590000     -72.53020000
C      -46.29370000     -36.34560000     -72.61950000
C      -46.22360000     -37.40330000     -71.71190000
C      -47.13220000     -37.54300000     -70.67240000
H      -48.94380000     -36.78850000     -69.76140000
H      -47.53580000     -34.65340000     -73.28720000
H      -45.45360000     -38.15390000     -71.69930000
H      -47.11870000     -38.45260000     -70.01760000
C      -45.31080000     -36.12250000     -73.71600000
H      -45.89310000     -35.73370000     -74.57100000
H      -44.84030000     -37.02040000     -74.14770000
C      -49.38120000     -34.48660000     -71.42650000
H      -49.59510000     -34.00840000     -72.41470000
H      -50.40910000     -34.88380000     -71.07030000
S      -43.88620000     -34.90190000     -73.42500000
S      -49.07650000     -32.94660000     -70.39770000
C      -43.12420000     -35.22500000     -71.76910000
H      -43.40860000     -36.33670000     -71.48930000
H      -42.08790000     -35.06470000     -71.88040000
C      -47.25070000     -32.52180000     -70.33460000
H      -46.79090000     -33.30860000     -69.68680000
H      -47.34980000     -31.60790000     -69.70590000
C      -46.52530000     -32.25110000     -71.68700000
H      -46.33070000     -33.14060000     -72.23070000
H      -47.16530000     -31.61170000     -72.27590000
C      -43.79250000     -34.35760000     -70.66320000
H      -43.64930000     -34.94310000     -69.72030000
H      -44.89110000     -34.27100000     -70.81310000
C      -43.21960000     -33.03110000     -70.54640000
C      -42.03730000     -32.75100000     -69.93430000
C      -43.94690000     -31.84310000     -70.88460000
H      -41.22080000     -33.49010000     -69.82350000
C      -43.16650000     -30.68290000     -70.57880000
C      -45.23020000     -31.45690000     -71.45880000
C      -45.32500000     -30.06970000     -71.61900000
S      -41.64570000     -31.06390000     -69.88220000
S      -43.86210000     -29.14650000     -71.10880000
H      -46.07770000     -29.48300000     -72.10520000
