40
Properties=species:S:1:pos:R:3 #=T CELL(abcABC):=T 1.889726e+02=T 90.00000=T Traj:=T positionsangstrom=T Step:=T 0=T Bead:=T pbc="F F F"
C      -48.26500000     -36.34640000     -71.06850000
C      -48.01460000     -35.35100000     -72.02750000
C      -46.80980000     -35.37240000     -72.78930000
C      -45.95430000     -36.40860000     -72.57500000
C      -46.24960000     -37.47130000     -71.65590000
C      -47.38450000     -37.37730000     -70.88630000
H      -49.25810000     -36.36400000     -70.51940000
H      -46.51130000     -34.59440000     -73.50490000
H      -45.48980000     -38.24790000     -71.37060000
H      -47.75960000     -38.15520000     -70.17100000
C      -44.62920000     -36.44880000     -73.38960000
H      -44.81740000     -36.57260000     -74.46250000
H      -43.95140000     -37.25100000     -73.07600000
C      -49.10260000     -34.31570000     -72.21750000
H      -49.06780000     -33.78870000     -73.15240000
H      -50.06410000     -34.79900000     -72.34470000
S      -43.67730000     -34.87950000     -73.16600000
S      -49.26240000     -33.11620000     -70.86510000
C      -43.01260000     -35.19580000     -71.44860000
H      -43.03190000     -36.30560000     -71.25040000
H      -41.97580000     -34.99460000     -71.39580000
C      -47.45520000     -32.75140000     -70.44310000
H      -46.95740000     -33.58010000     -69.93240000
H      -47.48140000     -31.82100000     -69.87490000
C      -46.50320000     -32.38120000     -71.63800000
H      -46.08900000     -33.22460000     -72.08340000
H      -47.05500000     -31.80780000     -72.43750000
C      -43.79600000     -34.42150000     -70.39490000
H      -43.78670000     -34.92770000     -69.44270000
H      -44.85100000     -34.48560000     -70.74350000
C      -43.33760000     -32.96560000     -70.30660000
C      -42.09420000     -32.66320000     -69.83280000
C      -44.10690000     -31.78260000     -70.62680000
H      -41.20550000     -33.30920000     -69.57450000
C      -43.38370000     -30.60250000     -70.37890000
C      -45.39930000     -31.45110000     -71.19930000
C      -45.54680000     -30.10670000     -71.35120000
S      -41.72690000     -30.93770000     -69.90250000
S      -44.17540000     -29.17430000     -70.82890000
H      -46.36870000     -29.57490000     -71.72040000
