40
Properties=species:S:1:pos:R:3 #=T CELL(abcABC):=T 1.889726e+02=T 90.00000=T Traj:=T positionsangstrom=T Step:=T 0=T Bead:=T pbc="F F F"
C      -48.35460000     -36.34720000     -71.05460000
C      -48.10950000     -35.45120000     -72.15550000
C      -46.97050000     -35.57050000     -72.93460000
C      -45.99170000     -36.51690000     -72.60470000
C      -46.16620000     -37.32420000     -71.44970000
C      -47.31540000     -37.24430000     -70.66480000
H      -49.23150000     -36.30370000     -70.28430000
H      -46.89550000     -34.99860000     -73.87210000
H      -45.39020000     -38.10520000     -71.18860000
H      -47.42760000     -37.78780000     -69.74090000
C      -44.72250000     -36.55410000     -73.38090000
H      -44.87340000     -36.71370000     -74.45410000
H      -44.11550000     -37.35690000     -72.94910000
C      -49.06130000     -34.36150000     -72.46510000
H      -48.61050000     -33.93570000     -73.37540000
H      -50.08440000     -34.69560000     -72.67180000
S      -43.61120000     -35.01010000     -73.11930000
S      -49.22540000     -33.11350000     -71.00020000
C      -42.96590000     -35.17590000     -71.39320000
H      -43.08780000     -36.21850000     -71.17610000
H      -41.87800000     -34.78840000     -71.49880000
C      -47.43170000     -32.86020000     -70.47960000
H      -46.96720000     -33.80200000     -70.17650000
H      -47.35630000     -32.24670000     -69.52630000
C      -46.54050000     -32.24120000     -71.60560000
H      -46.25700000     -33.06290000     -72.27800000
H      -47.18020000     -31.49510000     -72.22010000
C      -43.74050000     -34.37230000     -70.39820000
H      -43.55220000     -34.80810000     -69.38510000
H      -44.83880000     -34.44870000     -70.53110000
C      -43.37100000     -32.92190000     -70.26810000
C      -42.13540000     -32.65300000     -69.74370000
C      -44.09020000     -31.71630000     -70.76260000
H      -41.52860000     -33.41560000     -69.14110000
C      -43.38320000     -30.57770000     -70.41250000
C      -45.39980000     -31.36920000     -71.21850000
C      -45.58400000     -30.02200000     -71.34980000
S      -41.78600000     -30.94260000     -69.74800000
S      -44.10970000     -29.09460000     -70.88710000
H      -46.49820000     -29.52010000     -71.50690000
