40
Properties=species:S:1:pos:R:3 #=T CELL(abcABC):=T 1.889726e+02=T 90.00000=T Traj:=T positionsangstrom=T Step:=T 0=T Bead:=T pbc="F F F"
C      -48.32070000     -36.55470000     -71.03870000
C      -48.15630000     -35.46200000     -72.00670000
C      -47.03320000     -35.56140000     -72.90690000
C      -46.06620000     -36.55860000     -72.69100000
C      -46.18560000     -37.50930000     -71.70190000
C      -47.34430000     -37.49770000     -70.91520000
H      -49.10770000     -36.56920000     -70.35390000
H      -46.97550000     -34.81440000     -73.72520000
H      -45.48100000     -38.28330000     -71.57540000
H      -47.35620000     -38.34260000     -70.19180000
C      -44.87880000     -36.41810000     -73.58440000
H      -45.24020000     -36.17310000     -74.56840000
H      -44.28710000     -37.36390000     -73.64540000
C      -49.04310000     -34.28590000     -72.15370000
H      -48.72560000     -33.71820000     -73.02250000
H      -50.10210000     -34.57590000     -72.16670000
S      -43.74390000     -34.95070000     -73.28930000
S      -49.13610000     -33.03980000     -70.76230000
C      -43.18610000     -35.19100000     -71.53410000
H      -43.38640000     -36.27480000     -71.29270000
H      -42.15760000     -34.96230000     -71.63000000
C      -47.42770000     -32.70100000     -70.26440000
H      -47.06100000     -33.51370000     -69.59380000
H      -47.63520000     -31.92380000     -69.54640000
C      -46.42440000     -32.45120000     -71.36920000
H      -46.01430000     -33.46470000     -71.64200000
H      -46.96950000     -32.19340000     -72.27690000
C      -43.82080000     -34.32080000     -70.37320000
H      -43.62910000     -34.82990000     -69.38870000
H      -44.90850000     -34.31390000     -70.46550000
C      -43.28760000     -32.89320000     -70.30530000
C      -41.99850000     -32.60950000     -69.89860000
C      -44.01480000     -31.69010000     -70.63200000
H      -41.22080000     -33.28040000     -69.59700000
C      -43.23080000     -30.51480000     -70.55010000
C      -45.36720000     -31.42810000     -71.11340000
C      -45.56210000     -30.09950000     -71.31650000
S      -41.69320000     -30.87120000     -69.77870000
S      -44.12550000     -29.10690000     -70.90210000
H      -46.41190000     -29.64930000     -71.83790000
