40
Properties=species:S:1:pos:R:3 #=T CELL(abcABC):=T 1.889726e+02=T 90.00000=T Traj:=T positionsangstrom=T Step:=T 0=T Bead:=T pbc="F F F"
C      -44.49390000     -31.81300000     -74.57410000
C      -44.00530000     -33.08090000     -74.31510000
C      -43.05720000     -33.22010000     -73.32980000
C      -42.56160000     -32.13080000     -72.53210000
C      -43.10380000     -30.88290000     -72.84970000
C      -44.08060000     -30.72700000     -73.82270000
H      -45.17900000     -31.58840000     -75.37260000
H      -42.48300000     -34.22560000     -73.33120000
H      -42.66760000     -29.98610000     -72.45620000
H      -44.28530000     -29.75920000     -74.20410000
C      -41.40560000     -32.28640000     -71.54380000
H      -41.34840000     -31.51840000     -70.75260000
H      -40.49540000     -32.38390000     -72.16820000
C      -44.41050000     -34.20910000     -75.22270000
H      -44.55300000     -33.82500000     -76.26790000
H      -43.66250000     -35.04680000     -75.36370000
S      -41.44660000     -33.82830000     -70.47540000
S      -46.12820000     -34.93630000     -74.83910000
C      -42.88370000     -33.52690000     -69.38580000
H      -42.76890000     -33.97160000     -68.41030000
H      -42.76030000     -32.48620000     -69.23520000
C      -46.65210000     -34.11720000     -73.18110000
H      -47.75080000     -33.81270000     -73.27260000
H      -46.02790000     -33.14860000     -73.07700000
C      -46.55660000     -35.10580000     -71.99210000
H      -46.99170000     -36.07220000     -72.26920000
H      -45.54140000     -35.38990000     -71.74990000
C      -44.23780000     -33.91530000     -69.95950000
H      -44.11390000     -35.03200000     -70.05670000
H      -44.33070000     -33.54260000     -70.95660000
C      -45.48060000     -33.49780000     -69.17800000
C      -45.48160000     -32.73080000     -68.02170000
C      -46.79520000     -33.88420000     -69.59770000
H      -44.67690000     -32.24660000     -67.50620000
C      -47.81080000     -33.21120000     -68.88970000
C      -47.35610000     -34.56890000     -70.79790000
C      -48.76530000     -34.56980000     -70.77600000
S      -47.12710000     -32.40860000     -67.49940000
S      -49.43900000     -33.68180000     -69.45690000
H      -49.39120000     -34.99640000     -71.48240000
