40
Properties=species:S:1:pos:R:3 #=T CELL(abcABC):=T 1.889726e+02=T 90.00000=T Traj:=T positionsangstrom=T Step:=T 0=T Bead:=T pbc="F F F"
C      -44.48680000     -31.77710000     -74.73370000
C      -44.01440000     -33.04620000     -74.35890000
C      -43.17980000     -33.09090000     -73.26370000
C      -42.73080000     -31.99530000     -72.53640000
C      -43.31270000     -30.74720000     -72.87630000
C      -44.16460000     -30.65040000     -74.01330000
H      -45.19580000     -31.73400000     -75.52160000
H      -42.85460000     -34.10670000     -72.99800000
H      -43.15410000     -29.82060000     -72.37310000
H      -44.68770000     -29.69720000     -74.28940000
C      -41.52320000     -32.09360000     -71.59230000
H      -41.46590000     -31.20380000     -70.88040000
H      -40.59590000     -32.03470000     -72.19580000
C      -44.38370000     -34.36940000     -75.05160000
H      -44.30590000     -34.30230000     -76.11750000
H      -43.65630000     -35.08480000     -74.67850000
S      -41.45310000     -33.55590000     -70.48780000
S      -46.12510000     -34.82680000     -74.83900000
C      -42.85140000     -33.24400000     -69.27760000
H      -42.68730000     -33.87840000     -68.38620000
H      -42.87020000     -32.20060000     -68.95370000
C      -46.63310000     -34.34130000     -73.16750000
H      -47.57860000     -33.90660000     -73.20480000
H      -46.07060000     -33.49990000     -72.94180000
C      -46.57060000     -35.32350000     -71.97400000
H      -46.97170000     -36.26580000     -72.33330000
H      -45.48040000     -35.48030000     -71.74170000
C      -44.12300000     -33.74180000     -69.90100000
H      -44.08780000     -34.83090000     -70.06000000
H      -44.24230000     -33.28010000     -70.89220000
C      -45.42380000     -33.49410000     -69.20190000
C      -45.49800000     -32.77600000     -68.01180000
C      -46.70980000     -33.98100000     -69.63270000
H      -44.71730000     -32.34860000     -67.48770000
C      -47.73600000     -33.51620000     -68.84520000
C      -47.26630000     -34.72170000     -70.80580000
C      -48.63930000     -34.74520000     -70.79630000
S      -47.15310000     -32.53990000     -67.51290000
S      -49.34170000     -33.86990000     -69.44620000
H      -49.26540000     -35.23520000     -71.55940000
