40
Properties=species:S:1:pos:R:3 #=T CELL(abcABC):=T 1.889726e+02=T 90.00000=T Traj:=T positionsangstrom=T Step:=T 0=T Bead:=T pbc="F F F"
C      -44.18680000     -31.69430000     -74.40860000
C      -43.85860000     -33.04630000     -74.30990000
C      -42.94230000     -33.48080000     -73.32640000
C      -42.31550000     -32.56930000     -72.45040000
C      -42.80890000     -31.24400000     -72.50150000
C      -43.71130000     -30.81220000     -73.48410000
H      -44.98320000     -31.44960000     -75.05940000
H      -42.51650000     -34.45690000     -73.28850000
H      -42.32910000     -30.43730000     -71.91370000
H      -44.13190000     -29.83770000     -73.42080000
C      -41.16820000     -32.96280000     -71.55060000
H      -41.19230000     -32.12920000     -70.86090000
H      -40.18640000     -33.10420000     -72.02320000
C      -44.37060000     -34.11980000     -75.17060000
H      -44.24260000     -33.82010000     -76.21880000
H      -43.73310000     -35.02280000     -75.05020000
S      -41.49550000     -34.41660000     -70.50350000
S      -46.12410000     -34.86920000     -74.84520000
C      -42.95600000     -33.72030000     -69.58750000
H      -43.00220000     -34.04860000     -68.58130000
H      -42.82450000     -32.64190000     -69.61190000
C      -46.81960000     -33.94660000     -73.35610000
H      -47.73480000     -33.31640000     -73.60740000
H      -46.02990000     -33.20730000     -73.12340000
C      -47.07990000     -34.86710000     -72.12170000
H      -47.66830000     -35.70390000     -72.39920000
H      -46.07320000     -35.19720000     -71.86140000
C      -44.37400000     -33.84300000     -70.30500000
H      -44.49140000     -34.92170000     -70.44340000
H      -44.31650000     -33.30590000     -71.31740000
C      -45.57740000     -33.39390000     -69.47340000
C      -45.44260000     -32.76290000     -68.29410000
C      -46.97910000     -33.61330000     -69.79910000
H      -44.52210000     -32.56110000     -67.71450000
C      -47.83490000     -33.02330000     -68.86440000
C      -47.73410000     -34.18150000     -70.87890000
C      -49.08800000     -34.06360000     -70.66460000
S      -46.93310000     -32.42310000     -67.52460000
S      -49.52040000     -33.18180000     -69.18380000
H      -49.90350000     -34.32020000     -71.35670000
