40
Properties=species:S:1:pos:R:3 #=T CELL(abcABC):=T 1.889726e+02=T 90.00000=T Traj:=T positionsangstrom=T Step:=T 0=T Bead:=T pbc="F F F"
C      -44.71380000     -31.85370000     -74.78150000
C      -43.91440000     -32.89980000     -74.27910000
C      -42.95240000     -32.62880000     -73.33030000
C      -42.76470000     -31.32400000     -72.93280000
C      -43.56320000     -30.23720000     -73.33290000
C      -44.55280000     -30.55880000     -74.31120000
H      -45.45260000     -32.11790000     -75.43760000
H      -42.34750000     -33.49000000     -73.12570000
H      -43.30380000     -29.21880000     -73.04350000
H      -45.20610000     -29.76760000     -74.62130000
C      -41.68880000     -31.12520000     -71.91590000
H      -41.74180000     -29.99120000     -71.74570000
H      -40.74590000     -31.38750000     -72.39330000
C      -44.08480000     -34.29460000     -74.68860000
H      -43.64480000     -34.61850000     -75.65220000
H      -43.40720000     -34.99910000     -74.04110000
S      -41.80020000     -32.09610000     -70.39400000
S      -45.84120000     -34.91900000     -74.74210000
C      -43.57980000     -31.83720000     -69.76020000
H      -43.67530000     -31.97810000     -68.67140000
H      -43.80130000     -30.77980000     -69.91570000
C      -46.41720000     -34.39860000     -73.08410000
H      -47.49170000     -34.40660000     -73.20040000
H      -46.10590000     -33.37770000     -72.98840000
C      -45.91800000     -35.33140000     -71.96640000
H      -45.78570000     -36.35920000     -72.35560000
H      -44.92650000     -35.12170000     -71.57240000
C      -44.67880000     -32.78860000     -70.32250000
H      -44.28250000     -33.72270000     -70.66310000
H      -45.05040000     -32.37790000     -71.28040000
C      -45.77820000     -33.14450000     -69.38660000
C      -46.01150000     -32.62630000     -68.13130000
C      -46.67530000     -34.19280000     -69.74180000
H      -45.37850000     -31.88730000     -67.64920000
C      -47.63820000     -34.49120000     -68.71960000
C      -46.80370000     -35.18330000     -70.75860000
C      -47.93420000     -35.97420000     -70.48820000
S      -47.48360000     -33.34370000     -67.38100000
S      -48.76340000     -35.67610000     -68.97130000
H      -48.38060000     -36.73080000     -71.08580000
