40
Properties=species:S:1:pos:R:3 #=T CELL(abcABC):=T 1.889726e+02=T 90.00000=T Traj:=T positionsangstrom=T Step:=T 0=T Bead:=T pbc="F F F"
C      -42.06000000     -35.12690000     -71.62090000
C      -43.12600000     -34.22260000     -71.83780000
C      -43.25320000     -33.16060000     -70.91980000
C      -42.34140000     -32.99530000     -69.88270000
C      -41.14240000     -33.77410000     -69.78490000
C      -41.03660000     -34.84620000     -70.67360000
H      -41.98520000     -36.04130000     -72.30480000
H      -44.06040000     -32.40260000     -71.08010000
H      -40.35060000     -33.49930000     -69.06890000
H      -40.23950000     -35.56590000     -70.54930000
C      -42.59300000     -31.88850000     -68.93400000
H      -42.25240000     -30.92140000     -69.25710000
H      -41.97640000     -32.11990000     -68.07870000
C      -44.17980000     -34.51290000     -72.92290000
H      -45.09040000     -33.88460000     -72.99680000
H      -43.71880000     -34.50400000     -73.92720000
S      -44.40990000     -31.71810000     -68.33900000
S      -44.89110000     -36.22410000     -72.69090000
C      -45.29510000     -33.27760000     -68.59170000
H      -44.80570000     -33.81430000     -69.47230000
H      -45.21410000     -33.90760000     -67.71000000
C      -45.98720000     -36.00050000     -71.16010000
H      -45.62180000     -35.19960000     -70.51730000
H      -45.75080000     -36.90270000     -70.66290000
C      -47.46100000     -35.71050000     -71.43160000
H      -47.97850000     -36.44720000     -72.04860000
H      -48.03450000     -35.56440000     -70.50760000
C      -46.75120000     -33.08680000     -69.03840000
H      -47.27730000     -32.41890000     -68.26880000
H      -47.32130000     -33.95070000     -68.94380000
C      -46.85090000     -32.42940000     -70.44760000
C      -46.70790000     -31.11230000     -70.62460000
C      -47.27890000     -33.02220000     -71.73610000
H      -46.42770000     -30.33770000     -69.94620000
C      -47.27670000     -32.10840000     -72.78410000
C      -47.59260000     -34.36780000     -72.23610000
C      -47.84160000     -34.45890000     -73.59460000
S      -46.99070000     -30.48950000     -72.24430000
S      -47.75570000     -32.76170000     -74.28990000
H      -48.21850000     -35.27690000     -74.18820000
