40
Properties=species:S:1:pos:R:3 #=T CELL(abcABC):=T 1.889726e+02=T 90.00000=T Traj:=T positionsangstrom=T Step:=T 0=T Bead:=T pbc="F F F"
C      -45.86780000     -37.86360000     -71.47160000
C      -46.10870000     -36.88940000     -70.49070000
C      -47.00050000     -35.87480000     -70.83740000
C      -47.68990000     -35.83820000     -72.05410000
C      -47.37460000     -36.77210000     -73.03280000
C      -46.41230000     -37.76840000     -72.73100000
H      -45.32720000     -38.74680000     -71.25850000
H      -47.24950000     -35.13550000     -70.05800000
H      -47.71410000     -36.62150000     -74.07910000
H      -46.18080000     -38.66620000     -73.32390000
C      -48.49250000     -34.64560000     -72.48340000
H      -49.22220000     -34.26970000     -71.75200000
H      -49.04690000     -34.84240000     -73.36600000
C      -45.52000000     -37.02190000     -69.04710000
H      -46.11370000     -37.50800000     -68.31650000
H      -44.61710000     -37.68060000     -69.23010000
S      -47.46980000     -33.22040000     -72.99090000
S      -45.26780000     -35.40800000     -68.19990000
C      -47.91130000     -31.89120000     -71.68100000
H      -48.20650000     -30.97310000     -72.27890000
H      -48.70940000     -32.21750000     -71.08360000
C      -44.59870000     -34.21820000     -69.60310000
H      -45.42020000     -34.33660000     -70.28730000
H      -43.63060000     -34.62630000     -69.89840000
C      -44.30540000     -32.84380000     -68.99830000
H      -45.20650000     -32.39230000     -68.64460000
H      -43.74820000     -33.04200000     -68.03860000
C      -46.68480000     -31.48260000     -70.91550000
H      -46.32400000     -32.16140000     -70.11450000
H      -46.86950000     -30.61600000     -70.22090000
C      -45.48350000     -31.04200000     -71.70210000
C      -45.50510000     -30.26400000     -72.84200000
C      -44.15560000     -31.38600000     -71.29810000
H      -46.28210000     -30.07140000     -73.49540000
C      -43.18960000     -30.77500000     -72.12740000
C      -43.59670000     -31.98860000     -70.12490000
C      -42.22600000     -31.82500000     -70.12820000
S      -43.86790000     -29.91130000     -73.45270000
S      -41.65310000     -30.93890000     -71.49880000
H      -41.56990000     -32.30500000     -69.42660000
