40
Properties=species:S:1:pos:R:3 #=T CELL(abcABC):=T 1.889726e+02=T 90.00000=T Traj:=T positionsangstrom=T Step:=T 0=T Bead:=T pbc="F F F"
C      -48.68310000     -36.05290000     -70.30270000
C      -48.33910000     -35.37760000     -71.44050000
C      -47.12860000     -35.73090000     -72.08210000
C      -46.26790000     -36.64540000     -71.48320000
C      -46.66930000     -37.31810000     -70.30130000
C      -47.85920000     -37.00080000     -69.71260000
H      -49.47600000     -35.80000000     -69.70470000
H      -46.68510000     -35.21540000     -72.95120000
H      -46.14420000     -38.13280000     -69.84520000
H      -48.22130000     -37.38230000     -68.70400000
C      -44.90710000     -37.04530000     -72.11260000
H      -45.05350000     -37.54670000     -73.08460000
H      -44.46920000     -37.91110000     -71.52550000
C      -49.19590000     -34.26950000     -71.91460000
H      -49.01500000     -33.94080000     -72.95800000
H      -50.26550000     -34.37940000     -71.93970000
S      -43.65210000     -35.68070000     -72.30300000
S      -49.10240000     -32.65950000     -70.82040000
C      -43.49730000     -35.22680000     -70.53200000
H      -43.89550000     -36.01920000     -70.00330000
H      -42.38990000     -35.12940000     -70.30340000
C      -47.27660000     -32.19310000     -70.76110000
H      -46.78220000     -32.92070000     -70.09760000
H      -47.16430000     -31.24250000     -70.22000000
C      -46.44460000     -32.19920000     -72.18160000
H      -46.16450000     -33.25220000     -72.38810000
H      -47.01330000     -31.92460000     -73.09490000
C      -44.19850000     -33.98360000     -70.09870000
H      -44.35110000     -34.02500000     -68.92300000
H      -45.19660000     -33.98240000     -70.57960000
C      -43.48250000     -32.63820000     -70.36330000
C      -42.16660000     -32.41950000     -69.98040000
C      -44.02330000     -31.62560000     -71.20430000
H      -41.63970000     -33.11570000     -69.35780000
C      -42.99820000     -30.69460000     -71.48110000
C      -45.18060000     -31.38030000     -72.02620000
C      -45.10780000     -30.18250000     -72.67520000
S      -41.49170000     -30.98220000     -70.71100000
S      -43.57870000     -29.38360000     -72.51640000
H      -45.78130000     -29.87750000     -73.47050000
