40
Properties=species:S:1:pos:R:3 #=T CELL(abcABC):=T 1.889726e+02=T 90.00000=T Traj:=T positionsangstrom=T Step:=T 0=T Bead:=T pbc="F F F"
C      -48.50810000     -32.33040000     -69.13190000
C      -47.50610000     -31.40650000     -69.49480000
C      -47.30790000     -31.07550000     -70.79210000
C      -48.14360000     -31.63730000     -71.77660000
C      -49.11210000     -32.59500000     -71.41600000
C      -49.35290000     -32.91690000     -70.05810000
H      -48.73840000     -32.64580000     -68.05750000
H      -46.68720000     -30.23700000     -71.14420000
H      -49.81770000     -32.83610000     -72.17410000
H      -50.09360000     -33.61320000     -69.79850000
C      -48.01790000     -31.36130000     -73.20340000
H      -47.13410000     -30.75710000     -73.24260000
H      -48.96270000     -30.87930000     -73.51070000
C      -46.56560000     -30.85900000     -68.42060000
H      -45.79500000     -30.26850000     -68.92900000
H      -47.15590000     -30.25630000     -67.68170000
S      -47.94500000     -32.89540000     -74.32120000
S      -45.65860000     -32.10220000     -67.42740000
C      -46.20400000     -33.42770000     -74.28260000
H      -46.03550000     -34.23360000     -75.02420000
H      -45.53790000     -32.61250000     -74.52550000
C      -44.27150000     -32.46920000     -68.56280000
H      -43.60820000     -33.17920000     -67.92520000
H      -43.65320000     -31.53890000     -68.57130000
C      -44.53100000     -33.04440000     -69.89660000
H      -45.38420000     -33.70120000     -69.78370000
H      -44.89850000     -32.25480000     -70.59370000
C      -45.79860000     -33.99040000     -72.87150000
H      -46.47700000     -34.68610000     -72.51510000
H      -45.89100000     -33.18610000     -72.16760000
C      -44.41090000     -34.57840000     -72.92100000
C      -43.97850000     -35.33230000     -73.98260000
C      -43.44590000     -34.55010000     -71.84870000
H      -44.57840000     -35.68000000     -74.85230000
C      -42.33200000     -35.31590000     -72.08280000
C      -43.40660000     -33.85380000     -70.53820000
C      -42.15290000     -34.04930000     -69.97770000
S      -42.40500000     -36.11220000     -73.58210000
S      -41.12980000     -35.15730000     -70.78010000
H      -41.79710000     -33.53320000     -69.08370000
