40
Properties=species:S:1:pos:R:3 #=T CELL(abcABC):=T 1.889726e+02=T 90.00000=T Traj:=T positionsangstrom=T Step:=T 0=T Bead:=T pbc="F F F"
C      -48.26620000     -32.26180000     -69.18980000
C      -47.19890000     -31.49220000     -69.56950000
C      -47.09050000     -31.31190000     -70.95070000
C      -48.05860000     -31.73450000     -71.83470000
C      -49.04790000     -32.63030000     -71.46620000
C      -49.14120000     -32.85680000     -70.08770000
H      -48.31000000     -32.48660000     -68.17490000
H      -46.42840000     -30.53160000     -71.28290000
H      -49.82250000     -33.06230000     -72.16760000
H      -49.90440000     -33.62190000     -69.73110000
C      -47.97450000     -31.27580000     -73.25530000
H      -47.07550000     -30.62760000     -73.46130000
H      -48.83390000     -30.66190000     -73.51720000
C      -46.28990000     -30.78750000     -68.59970000
H      -45.50210000     -30.23050000     -69.16570000
H      -46.72230000     -30.10610000     -67.85550000
S      -47.79180000     -32.64900000     -74.47750000
S      -45.54070000     -31.98560000     -67.36110000
C      -46.20250000     -33.32130000     -73.93200000
H      -45.75670000     -33.84040000     -74.71560000
H      -45.47980000     -32.47780000     -73.94950000
C      -44.29930000     -33.02550000     -68.19200000
H      -44.23560000     -33.93200000     -67.67170000
H      -43.28380000     -32.51630000     -68.03260000
C      -44.65270000     -33.29240000     -69.61500000
H      -45.55600000     -33.95710000     -69.54290000
H      -44.93050000     -32.39440000     -70.14730000
C      -46.09870000     -34.23040000     -72.68620000
H      -46.80980000     -35.02170000     -72.68110000
H      -46.24560000     -33.62490000     -71.80960000
C      -44.72360000     -34.89630000     -72.69190000
C      -44.25350000     -35.59400000     -73.78240000
C      -43.68230000     -34.58620000     -71.74420000
H      -44.82200000     -36.02740000     -74.60690000
C      -42.50000000     -35.22100000     -72.14180000
C      -43.57780000     -33.92190000     -70.49230000
C      -42.23860000     -33.93200000     -70.06350000
S      -42.58900000     -36.07240000     -73.63470000
S      -41.14050000     -34.88550000     -71.06060000
H      -41.97100000     -33.62860000     -69.08510000
