40
Properties=species:S:1:pos:R:3 #=T CELL(abcABC):=T 1.889726e+02=T 90.00000=T Traj:=T positionsangstrom=T Step:=T 0=T Bead:=T pbc="F F F"
C      -48.36760000     -32.38700000     -69.15840000
C      -47.36000000     -31.43770000     -69.53760000
C      -47.31220000     -31.09860000     -70.87420000
C      -48.13040000     -31.61920000     -71.81270000
C      -49.18340000     -32.56810000     -71.39860000
C      -49.24390000     -32.95430000     -70.04790000
H      -48.40010000     -32.55880000     -68.07500000
H      -46.40940000     -30.51100000     -71.20450000
H      -49.71100000     -33.08140000     -72.20650000
H      -50.13230000     -33.53520000     -69.72850000
C      -48.03090000     -31.29540000     -73.25040000
H      -47.18030000     -30.66270000     -73.35300000
H      -48.89600000     -30.64570000     -73.62980000
C      -46.41810000     -30.74490000     -68.48600000
H      -45.74310000     -30.14700000     -69.09150000
H      -46.93750000     -30.01480000     -67.89820000
S      -47.90360000     -32.75230000     -74.46970000
S      -45.66840000     -32.01370000     -67.37500000
C      -46.15070000     -33.33370000     -74.23760000
H      -46.00520000     -33.97370000     -75.12380000
H      -45.51240000     -32.43470000     -74.18350000
C      -44.23530000     -32.77750000     -68.37800000
H      -43.85960000     -33.63200000     -67.95240000
H      -43.51330000     -31.97060000     -68.34310000
C      -44.52590000     -33.16840000     -69.76210000
H      -45.52250000     -33.68100000     -69.81080000
H      -44.60370000     -32.27380000     -70.37900000
C      -45.97240000     -34.07650000     -72.86700000
H      -46.82110000     -34.86470000     -72.79980000
H      -46.20200000     -33.40160000     -72.04300000
C      -44.58600000     -34.74210000     -72.79290000
C      -44.17200000     -35.68760000     -73.73710000
C      -43.55310000     -34.56610000     -71.77390000
H      -44.55050000     -35.80160000     -74.73390000
C      -42.35910000     -35.17870000     -72.17500000
C      -43.43750000     -33.93570000     -70.43310000
C      -42.16850000     -34.08820000     -69.87680000
S      -42.49750000     -36.12410000     -73.57800000
S      -41.01780000     -35.02680000     -70.93760000
H      -41.95180000     -33.72500000     -68.93430000
