40
Properties=species:S:1:pos:R:3 #=T CELL(abcABC):=T 1.889726e+02=T 90.00000=T Traj:=T positionsangstrom=T Step:=T 0=T Bead:=T pbc="F F F"
C      -45.86940000     -37.30390000     -71.33900000
C      -46.27460000     -36.52200000     -70.25090000
C      -47.27890000     -35.55920000     -70.45810000
C      -48.00330000     -35.63660000     -71.69690000
C      -47.70640000     -36.53270000     -72.72180000
C      -46.58400000     -37.39610000     -72.50870000
H      -45.06350000     -38.07320000     -71.18370000
H      -47.64160000     -34.91290000     -69.60470000
H      -48.15000000     -36.48170000     -73.73830000
H      -46.29140000     -38.07140000     -73.28170000
C      -49.10710000     -34.58480000     -72.05930000
H      -49.36540000     -34.05840000     -71.20060000
H      -49.93840000     -35.13760000     -72.57380000
C      -45.45040000     -36.65750000     -68.86070000
H      -46.03200000     -37.26270000     -68.15070000
H      -44.57220000     -37.32640000     -69.04980000
S      -48.42190000     -33.28980000     -73.22540000
S      -44.93880000     -35.15060000     -68.04480000
C      -47.79790000     -32.15680000     -71.87190000
H      -48.05100000     -31.19160000     -72.30140000
H      -48.51290000     -32.20110000     -71.07410000
C      -44.03890000     -34.23720000     -69.36600000
H      -44.28410000     -34.51440000     -70.35040000
H      -42.99150000     -34.55160000     -69.44150000
C      -43.99900000     -32.75640000     -69.14510000
H      -45.06510000     -32.40680000     -69.06590000
H      -43.57900000     -32.56510000     -68.10920000
C      -46.41720000     -32.17060000     -71.25310000
H      -46.10710000     -33.19760000     -71.07980000
H      -46.49660000     -31.70970000     -70.23180000
C      -45.30610000     -31.56850000     -72.03600000
C      -45.33390000     -30.95440000     -73.27470000
C      -43.96440000     -31.56270000     -71.40940000
H      -46.14990000     -30.88150000     -74.02290000
C      -43.01980000     -30.93280000     -72.26120000
C      -43.34600000     -31.97750000     -70.18100000
C      -42.01910000     -31.67800000     -70.11990000
S      -43.77390000     -30.30010000     -73.73970000
S      -41.40750000     -30.80410000     -71.44950000
H      -41.35510000     -31.97790000     -69.32090000
