40
Properties=species:S:1:pos:R:3 #=T CELL(abcABC):=T 1.889726e+02=T 90.00000=T Traj:=T positionsangstrom=T Step:=T 0=T Bead:=T pbc="F F F"
C      -45.87150000     -37.39870000     -71.19850000
C      -46.30940000     -36.58040000     -70.13830000
C      -47.36340000     -35.69820000     -70.38370000
C      -48.03820000     -35.62500000     -71.60480000
C      -47.60820000     -36.47790000     -72.65610000
C      -46.56420000     -37.34070000     -72.42520000
H      -45.01440000     -38.06240000     -71.14710000
H      -47.64310000     -35.00350000     -69.59620000
H      -48.16660000     -36.46920000     -73.59210000
H      -46.20840000     -38.00540000     -73.24490000
C      -49.11980000     -34.69010000     -71.78750000
H      -49.47230000     -34.23620000     -70.85590000
H      -50.14230000     -34.96900000     -72.09420000
C      -45.77360000     -36.72280000     -68.74110000
H      -46.67010000     -37.01280000     -68.19920000
H      -44.97570000     -37.40370000     -68.52970000
S      -48.57260000     -33.28790000     -72.98270000
S      -45.13430000     -35.02600000     -68.10070000
C      -47.73430000     -31.96820000     -72.04790000
H      -47.60220000     -31.15500000     -72.79200000
H      -48.38970000     -31.49730000     -71.22820000
C      -44.15510000     -34.23260000     -69.48160000
H      -44.84060000     -34.31580000     -70.37780000
H      -43.25090000     -34.87650000     -69.70670000
C      -43.81530000     -32.78380000     -69.11440000
H      -44.70250000     -32.15590000     -68.95980000
H      -43.29830000     -32.80530000     -68.21770000
C      -46.33420000     -32.43430000     -71.52440000
H      -46.20480000     -33.49180000     -71.94640000
H      -46.22520000     -32.49670000     -70.47980000
C      -45.15170000     -31.71800000     -72.11590000
C      -45.21910000     -31.14040000     -73.33970000
C      -43.85510000     -31.57970000     -71.45970000
H      -45.92010000     -31.30580000     -74.14710000
C      -42.99460000     -30.80870000     -72.21020000
C      -43.14460000     -31.99960000     -70.23680000
C      -41.86570000     -31.51430000     -70.17950000
S      -43.64770000     -30.41710000     -73.75500000
S      -41.40500000     -30.60090000     -71.66100000
H      -41.12940000     -31.76290000     -69.40460000
