40
Properties=species:S:1:pos:R:3 #=T CELL(abcABC):=T 1.889726e+02=T 90.00000=T Traj:=T positionsangstrom=T Step:=T 0=T Bead:=T pbc="F F F"
C      -45.92010000     -37.56390000     -71.29110000
C      -46.14030000     -36.56370000     -70.36640000
C      -47.18550000     -35.62270000     -70.62110000
C      -47.84700000     -35.63990000     -71.87950000
C      -47.57410000     -36.63900000     -72.86080000
C      -46.54150000     -37.52480000     -72.54960000
H      -45.06350000     -38.28360000     -71.20470000
H      -47.33600000     -34.77450000     -69.89980000
H      -48.10050000     -36.84730000     -73.79290000
H      -46.19920000     -38.22200000     -73.29920000
C      -48.87250000     -34.58540000     -72.09280000
H      -49.28950000     -34.22690000     -71.10260000
H      -49.69910000     -35.11680000     -72.61270000
C      -45.42380000     -36.81040000     -69.02120000
H      -45.83040000     -37.38960000     -68.20150000
H      -44.46100000     -37.27770000     -69.37050000
S      -48.21340000     -33.20240000     -73.17190000
S      -44.94340000     -35.23200000     -68.05340000
C      -47.86560000     -31.87220000     -71.95610000
H      -47.77630000     -30.91490000     -72.49490000
H      -48.66880000     -31.88870000     -71.20060000
C      -44.05280000     -34.23940000     -69.34640000
H      -44.61800000     -34.31310000     -70.24500000
H      -43.00710000     -34.61510000     -69.27460000
C      -44.03350000     -32.74220000     -69.00160000
H      -45.04040000     -32.39910000     -68.84490000
H      -43.51530000     -32.48500000     -68.05070000
C      -46.57120000     -32.07880000     -71.19300000
H      -46.42880000     -33.13710000     -70.99610000
H      -46.69210000     -31.68130000     -70.16070000
C      -45.40810000     -31.43130000     -71.86770000
C      -45.48300000     -30.76540000     -73.11290000
C      -44.02990000     -31.48960000     -71.34040000
H      -46.33530000     -30.37980000     -73.67040000
C      -43.11190000     -31.01990000     -72.28740000
C      -43.38610000     -31.98590000     -70.12090000
C      -42.05220000     -31.69770000     -70.05050000
S      -43.88330000     -30.15250000     -73.55090000
S      -41.51660000     -30.94800000     -71.63030000
H      -41.32650000     -31.87350000     -69.30750000
