40
Properties=species:S:1:pos:R:3 #=T CELL(abcABC):=T 1.889726e+02=T 90.00000=T Traj:=T positionsangstrom=T Step:=T 0=T Bead:=T pbc="F F F"
C      -43.43920000     -34.29010000     -73.87290000
C      -43.40900000     -32.89920000     -73.63250000
C      -44.48130000     -32.10770000     -73.88780000
C      -45.47500000     -32.58980000     -74.69910000
C      -45.49260000     -33.95830000     -75.08180000
C      -44.51520000     -34.81960000     -74.55540000
H      -42.54250000     -34.76260000     -73.49620000
H      -44.57130000     -31.13690000     -73.44290000
H      -46.42470000     -34.36020000     -75.57610000
H      -44.69860000     -35.91040000     -74.63180000
C      -46.60810000     -31.54540000     -75.01960000
H      -47.30900000     -32.06350000     -75.71580000
H      -46.14730000     -30.60630000     -75.48350000
C      -42.16050000     -32.31600000     -73.01000000
H      -41.44060000     -33.04020000     -72.86900000
H      -41.76190000     -31.55230000     -73.65630000
S      -47.39370000     -30.98300000     -73.45550000
S      -42.51770000     -31.27070000     -71.50070000
C      -47.60510000     -32.61840000     -72.53420000
H      -48.68870000     -32.73060000     -72.32990000
H      -47.31420000     -33.41740000     -73.23800000
C      -42.98310000     -32.73840000     -70.45920000
H      -42.03770000     -33.22000000     -70.16950000
H      -43.48780000     -33.41810000     -71.09080000
C      -43.83470000     -32.34270000     -69.31950000
H      -43.26400000     -31.78250000     -68.52210000
H      -44.68630000     -31.64790000     -69.63240000
C      -46.70740000     -32.61340000     -71.25330000
H      -47.07760000     -31.67450000     -70.77170000
H      -45.70450000     -32.51380000     -71.64350000
C      -46.78390000     -33.77370000     -70.28120000
C      -47.81630000     -34.64490000     -70.31420000
C      -45.78170000     -34.12360000     -69.27920000
H      -48.57980000     -34.62370000     -71.04320000
C      -46.16860000     -35.30290000     -68.64300000
C      -44.53260000     -33.55840000     -68.66050000
C      -44.05410000     -34.33590000     -67.65250000
S      -47.69850000     -35.94360000     -69.13810000
S      -45.20680000     -35.69640000     -67.27940000
H      -43.13060000     -34.20490000     -67.10750000
