40
Properties=species:S:1:pos:R:3 #=T CELL(abcABC):=T 1.889726e+02=T 90.00000=T Traj:=T positionsangstrom=T Step:=T 0=T Bead:=T pbc="F F F"
C      -47.60950000     -36.57910000     -69.52700000
C      -47.38870000     -35.33110000     -69.07270000
C      -47.89940000     -34.15840000     -69.73700000
C      -48.69250000     -34.28730000     -70.87820000
C      -48.74690000     -35.56270000     -71.42720000
C      -48.25800000     -36.71870000     -70.77790000
H      -47.26150000     -37.43860000     -68.94190000
H      -47.70300000     -33.12410000     -69.33400000
H      -49.14300000     -35.64540000     -72.39070000
H      -48.43030000     -37.66670000     -71.21010000
C      -49.29400000     -33.05840000     -71.50560000
H      -49.16650000     -32.13980000     -70.84170000
H      -50.32990000     -33.23510000     -71.66700000
C      -46.64970000     -35.07220000     -67.78840000
H      -46.85970000     -34.11610000     -67.38490000
H      -47.11330000     -35.75410000     -67.05290000
S      -48.61660000     -32.46180000     -73.18860000
S      -44.82170000     -35.39790000     -67.99650000
C      -46.86360000     -31.97150000     -72.91280000
H      -46.59000000     -31.43820000     -73.75980000
H      -46.80340000     -31.31750000     -72.02260000
C      -44.52820000     -34.65800000     -69.72100000
H      -45.34690000     -34.99000000     -70.33670000
H      -43.60560000     -35.12540000     -70.11940000
C      -44.37220000     -33.12880000     -69.73660000
H      -45.31290000     -32.62250000     -69.96880000
H      -44.05130000     -32.70330000     -68.73430000
C      -45.86180000     -33.19490000     -72.95230000
H      -45.99350000     -33.82740000     -73.84040000
H      -45.87400000     -33.80320000     -71.99180000
C      -44.47340000     -32.58080000     -73.14190000
C      -44.02520000     -32.08690000     -74.37460000
C      -43.38740000     -32.42870000     -72.12430000
H      -44.46570000     -32.24480000     -75.38720000
C      -42.17670000     -31.87750000     -72.65750000
C      -43.31690000     -32.60390000     -70.72260000
C      -42.11300000     -32.10190000     -70.22950000
S      -42.32540000     -31.52280000     -74.35640000
S      -41.02630000     -31.44000000     -71.47820000
H      -41.99510000     -31.88710000     -69.16350000
