40
Properties=species:S:1:pos:R:3 #=T CELL(abcABC):=T 1.889726e+02=T 90.00000=T Traj:=T positionsangstrom=T Step:=T 0=T Bead:=T pbc="F F F"
C      -47.38410000     -37.09240000     -70.49430000
C      -47.10230000     -35.98230000     -69.64090000
C      -47.60450000     -34.68140000     -69.91410000
C      -48.44810000     -34.49810000     -71.02390000
C      -48.86430000     -35.61280000     -71.78400000
C      -48.34770000     -36.88930000     -71.53450000
H      -46.98560000     -38.03160000     -70.28260000
H      -47.42820000     -33.88340000     -69.23490000
H      -49.55430000     -35.38830000     -72.61830000
H      -48.50780000     -37.65290000     -72.26550000
C      -49.02250000     -33.09180000     -71.30120000
H      -48.64070000     -32.52830000     -70.47840000
H      -50.15380000     -33.05130000     -71.25130000
C      -46.24680000     -36.22190000     -68.37300000
H      -46.95270000     -36.40990000     -67.51520000
H      -45.61260000     -37.20520000     -68.44510000
S      -48.60950000     -32.35610000     -72.87850000
S      -45.48780000     -34.63850000     -67.72080000
C      -46.76110000     -31.89070000     -72.70700000
H      -46.56750000     -31.05760000     -73.42610000
H      -46.51300000     -31.56370000     -71.72890000
C      -44.26500000     -34.22890000     -69.08610000
H      -44.45760000     -34.94530000     -69.93750000
H      -43.30860000     -34.46980000     -68.70380000
C      -44.46010000     -32.82050000     -69.65300000
H      -45.44900000     -32.69910000     -70.11770000
H      -44.44680000     -32.10600000     -68.85370000
C      -45.84260000     -33.07400000     -73.04390000
H      -46.13820000     -33.22650000     -74.12900000
H      -45.95830000     -33.87100000     -72.34170000
C      -44.34380000     -32.68900000     -73.10590000
C      -43.94380000     -32.23110000     -74.32760000
C      -43.45100000     -32.41990000     -72.04900000
H      -44.41570000     -32.50360000     -75.24800000
C      -42.28290000     -31.76340000     -72.57990000
C      -43.35040000     -32.45510000     -70.58200000
C      -42.18560000     -31.92850000     -70.07010000
S      -42.29170000     -31.63360000     -74.29440000
S      -41.15290000     -31.27710000     -71.33600000
H      -41.89460000     -31.80190000     -69.07020000
