40
Properties=species:S:1:pos:R:3 #=T CELL(abcABC):=T 1.889726e+02=T 90.00000=T Traj:=T positionsangstrom=T Step:=T 0=T Bead:=T pbc="F F F"
C      -43.27850000     -34.19170000     -74.12310000
C      -43.18170000     -32.81030000     -73.78870000
C      -44.30160000     -32.02000000     -74.08000000
C      -45.43850000     -32.52180000     -74.70930000
C      -45.46800000     -33.91360000     -75.09470000
C      -44.45820000     -34.77520000     -74.74200000
H      -42.34950000     -34.82780000     -73.92150000
H      -44.32900000     -30.91760000     -73.88690000
H      -46.35800000     -34.31970000     -75.58430000
H      -44.58550000     -35.79130000     -74.97460000
C      -46.67820000     -31.70830000     -74.93730000
H      -47.40370000     -32.38270000     -75.36310000
H      -46.57910000     -30.83720000     -75.50790000
C      -42.05740000     -32.31030000     -72.98150000
H      -41.38220000     -33.13250000     -72.67690000
H      -41.44680000     -31.57180000     -73.63820000
S      -47.42970000     -30.91740000     -73.38550000
S      -42.54600000     -31.35540000     -71.44350000
C      -47.56830000     -32.35650000     -72.18890000
H      -48.46470000     -32.30350000     -71.59250000
H      -47.79260000     -33.34790000     -72.73750000
C      -42.91550000     -32.74550000     -70.33060000
H      -42.03270000     -33.14620000     -69.83910000
H      -43.33000000     -33.59390000     -70.89240000
C      -43.82680000     -32.40340000     -69.13380000
H      -43.24960000     -31.94060000     -68.37630000
H      -44.53250000     -31.65110000     -69.52700000
C      -46.44040000     -32.53600000     -71.19870000
H      -46.23010000     -31.77560000     -70.43030000
H      -45.49370000     -32.75660000     -71.62790000
C      -46.70400000     -33.80900000     -70.32600000
C      -47.76390000     -34.65450000     -70.54580000
C      -45.90560000     -34.12550000     -69.23900000
H      -48.39630000     -34.62080000     -71.43630000
C      -46.30670000     -35.33770000     -68.59830000
C      -44.57770000     -33.62520000     -68.66430000
C      -44.24510000     -34.37900000     -67.55350000
S      -47.83420000     -35.96560000     -69.32880000
S      -45.33010000     -35.76750000     -67.23100000
H      -43.34520000     -34.41530000     -66.98110000
