40
Properties=species:S:1:pos:R:3 #=T CELL(abcABC):=T 1.889726e+02=T 90.00000=T Traj:=T positionsangstrom=T Step:=T 0=T Bead:=T pbc="F F F"
C      -46.69430000     -36.89580000     -71.12600000
C      -46.61360000     -36.05550000     -69.99500000
C      -47.59810000     -34.95430000     -69.95400000
C      -48.41700000     -34.65020000     -71.08140000
C      -48.50100000     -35.57070000     -72.14240000
C      -47.58690000     -36.60950000     -72.15770000
H      -46.08820000     -37.80560000     -71.24000000
H      -47.55360000     -34.26200000     -69.12990000
H      -49.17340000     -35.60390000     -73.00650000
H      -47.52410000     -37.34800000     -72.97890000
C      -49.18430000     -33.33900000     -71.10760000
H      -48.90030000     -32.56200000     -70.37920000
H      -50.26050000     -33.42590000     -70.98120000
C      -45.71870000     -36.34690000     -68.85940000
H      -46.27280000     -36.96640000     -68.17360000
H      -44.92190000     -37.01050000     -69.33530000
S      -48.80770000     -32.62450000     -72.78370000
S      -45.01450000     -35.02800000     -67.82800000
C      -47.02500000     -32.14020000     -72.48150000
H      -46.91930000     -31.28050000     -73.24850000
H      -46.97850000     -31.59990000     -71.56650000
C      -44.13760000     -34.02060000     -69.10660000
H      -44.17150000     -34.60590000     -70.03770000
H      -43.16410000     -33.84650000     -68.74370000
C      -44.74970000     -32.68790000     -69.45200000
H      -45.69560000     -32.68210000     -70.03940000
H      -44.94830000     -31.97720000     -68.62950000
C      -45.98430000     -33.26170000     -72.65480000
H      -46.21680000     -33.88410000     -73.61350000
H      -46.09170000     -33.82780000     -71.81230000
C      -44.58770000     -32.66380000     -72.82570000
C      -43.99640000     -32.69600000     -74.08930000
C      -43.68420000     -32.03500000     -71.87030000
H      -44.43120000     -33.16600000     -74.95320000
C      -42.55430000     -31.50410000     -72.46230000
C      -43.71860000     -31.92890000     -70.43960000
C      -42.59680000     -31.29510000     -69.96260000
S      -42.47320000     -31.77450000     -74.16870000
S      -41.49690000     -30.80370000     -71.22770000
H      -42.35790000     -31.10550000     -68.89590000
