40
Properties=species:S:1:pos:R:3 #=T CELL(abcABC):=T 1.889726e+02=T 90.00000=T Traj:=T positionsangstrom=T Step:=T 0=T Bead:=T pbc="F F F"
C      -48.26300000     -32.41460000     -69.02900000
C      -47.42180000     -31.32320000     -69.43130000
C      -47.38280000     -30.98030000     -70.83410000
C      -48.24010000     -31.51640000     -71.73990000
C      -49.16210000     -32.41330000     -71.20680000
C      -49.24570000     -32.80610000     -69.89710000
H      -48.11140000     -32.91700000     -68.05230000
H      -46.61850000     -30.14570000     -71.04590000
H      -49.87320000     -32.72640000     -71.91040000
H      -50.00900000     -33.40290000     -69.51200000
C      -48.10390000     -31.15930000     -73.22720000
H      -47.24410000     -30.47000000     -73.24040000
H      -48.99410000     -30.73190000     -73.71070000
C      -46.41910000     -30.80770000     -68.38260000
H      -45.60460000     -30.24900000     -68.80980000
H      -46.97150000     -30.13010000     -67.74440000
S      -47.75590000     -32.63200000     -74.26690000
S      -45.52580000     -32.15070000     -67.46870000
C      -46.15500000     -33.17530000     -73.53690000
H      -45.44140000     -33.29860000     -74.33940000
H      -45.77330000     -32.29170000     -72.98070000
C      -44.02890000     -32.44780000     -68.50290000
H      -43.44050000     -33.19530000     -67.99020000
H      -43.47270000     -31.43980000     -68.58260000
C      -44.51370000     -33.17310000     -69.86050000
H      -45.36250000     -33.88350000     -69.61330000
H      -44.91980000     -32.38660000     -70.47040000
C      -46.09170000     -34.46690000     -72.71110000
H      -46.82110000     -35.21440000     -73.02710000
H      -46.27190000     -34.26580000     -71.67560000
C      -44.69890000     -34.98020000     -72.80070000
C      -44.29710000     -35.72680000     -73.80790000
C      -43.61940000     -34.75440000     -71.84890000
H      -44.93610000     -36.09570000     -74.64940000
C      -42.37790000     -35.28620000     -72.32420000
C      -43.43980000     -33.94380000     -70.62310000
C      -42.15940000     -34.06190000     -70.14760000
S      -42.63290000     -36.28460000     -73.74200000
S      -41.03510000     -34.94870000     -71.22790000
H      -41.53790000     -33.56840000     -69.34720000
