40
Properties=species:S:1:pos:R:3 #=T CELL(abcABC):=T 1.889726e+02=T 90.00000=T Traj:=T positionsangstrom=T Step:=T 0=T Bead:=T pbc="F F F"
C      -47.70590000     -36.23750000     -69.46570000
C      -47.25360000     -34.95270000     -69.12420000
C      -47.90670000     -33.95650000     -69.76230000
C      -48.94100000     -34.15670000     -70.68200000
C      -49.46020000     -35.43570000     -70.92010000
C      -48.74030000     -36.48050000     -70.32830000
H      -47.08230000     -36.96840000     -69.10350000
H      -47.42490000     -32.98860000     -69.72780000
H      -50.29480000     -35.68270000     -71.56750000
H      -49.10650000     -37.44200000     -70.54750000
C      -49.30060000     -32.81540000     -71.40460000
H      -48.99970000     -32.04120000     -70.72390000
H      -50.45080000     -32.69160000     -71.46910000
C      -46.34710000     -34.60600000     -68.04230000
H      -46.09880000     -33.58830000     -67.97620000
H      -46.76970000     -34.84560000     -67.10550000
S      -48.64580000     -32.67960000     -73.13090000
S      -44.59050000     -35.32290000     -68.01460000
C      -46.82330000     -32.22780000     -72.79960000
H      -46.52060000     -31.50360000     -73.53600000
H      -46.79360000     -31.69140000     -71.83940000
C      -43.96580000     -34.72790000     -69.63440000
H      -44.41580000     -35.35980000     -70.43010000
H      -42.88480000     -35.01550000     -69.57230000
C      -44.19600000     -33.20510000     -69.83360000
H      -45.23520000     -33.02270000     -70.16160000
H      -44.08060000     -32.70820000     -68.81730000
C      -45.81960000     -33.41800000     -72.90920000
H      -46.10760000     -33.98410000     -73.84890000
H      -45.77360000     -34.11540000     -72.00910000
C      -44.46270000     -32.91530000     -73.16170000
C      -43.99980000     -32.58980000     -74.44920000
C      -43.42970000     -32.52380000     -72.16980000
H      -44.52160000     -32.73570000     -75.35310000
C      -42.30640000     -31.88420000     -72.78620000
C      -43.22110000     -32.59320000     -70.76320000
C      -42.04630000     -31.93610000     -70.31620000
S      -42.40040000     -31.76230000     -74.51790000
S      -41.10940000     -31.35060000     -71.66290000
H      -41.67550000     -32.17200000     -69.35600000
