40
Properties=species:S:1:pos:R:3 #=T CELL(abcABC):=T 1.889726e+02=T 90.00000=T Traj:=T positionsangstrom=T Step:=T 0=T Bead:=T pbc="F F F"
C      -48.29450000     -32.50310000     -68.69790000
C      -47.30160000     -31.55060000     -69.02660000
C      -47.34750000     -31.02490000     -70.34720000
C      -48.31690000     -31.34660000     -71.27820000
C      -49.33240000     -32.25600000     -70.87800000
C      -49.34000000     -32.80220000     -69.63570000
H      -48.31850000     -32.77250000     -67.61290000
H      -46.50490000     -30.50920000     -70.69710000
H      -50.18100000     -32.48690000     -71.51960000
H      -50.16190000     -33.53150000     -69.26530000
C      -48.17440000     -30.90130000     -72.73580000
H      -47.26240000     -30.37870000     -72.92440000
H      -49.01200000     -30.32530000     -73.08940000
C      -46.12050000     -31.09200000     -68.15700000
H      -45.47170000     -30.24460000     -68.60410000
H      -46.64210000     -30.57560000     -67.34440000
S      -48.05460000     -32.37940000     -73.88390000
S      -45.21870000     -32.49230000     -67.41550000
C      -46.32110000     -33.01460000     -73.57180000
H      -45.84110000     -33.18190000     -74.56320000
H      -45.74330000     -32.19540000     -73.15500000
C      -43.76630000     -32.96690000     -68.53150000
H      -43.28600000     -33.97090000     -68.25590000
H      -43.00170000     -32.25080000     -68.35450000
C      -44.21570000     -33.01160000     -70.05420000
H      -45.24760000     -33.46430000     -70.12200000
H      -44.21120000     -31.89210000     -70.34300000
C      -46.16080000     -34.31780000     -72.78250000
H      -47.16340000     -34.91930000     -72.96930000
H      -46.32490000     -34.09310000     -71.64210000
C      -44.83840000     -34.98240000     -72.93070000
C      -44.50500000     -35.83610000     -73.94970000
C      -43.58560000     -34.51190000     -72.20770000
H      -45.14040000     -36.18820000     -74.73220000
C      -42.46530000     -35.21870000     -72.68170000
C      -43.26610000     -33.81390000     -70.99590000
C      -41.94230000     -33.98890000     -70.56670000
S      -42.78520000     -36.26350000     -74.03470000
S      -41.02820000     -34.99060000     -71.75530000
H      -41.41540000     -33.48700000     -69.81570000
