40
Properties=species:S:1:pos:R:3 #=T CELL(abcABC):=T 1.889726e+02=T 90.00000=T Traj:=T positionsangstrom=T Step:=T 0=T Bead:=T pbc="F F F"
C      -48.03230000     -31.85370000     -68.68730000
C      -46.79820000     -31.33330000     -69.19910000
C      -46.68810000     -30.99580000     -70.51940000
C      -47.81510000     -31.19860000     -71.35760000
C      -48.89800000     -31.87780000     -70.86080000
C      -49.07810000     -32.16940000     -69.49720000
H      -48.19070000     -32.06840000     -67.67530000
H      -45.81080000     -30.36800000     -70.86980000
H      -49.70770000     -32.09180000     -71.55250000
H      -50.07790000     -32.54500000     -69.21420000
C      -47.68530000     -30.78990000     -72.81980000
H      -46.73410000     -30.36990000     -73.14180000
H      -48.37820000     -29.98880000     -73.01690000
C      -45.69700000     -31.00400000     -68.25170000
H      -44.79380000     -30.67230000     -68.86130000
H      -45.98620000     -30.24570000     -67.50490000
S      -48.08520000     -32.12930000     -74.07430000
S      -45.10810000     -32.48610000     -67.27290000
C      -46.50470000     -33.17490000     -74.17920000
H      -46.66480000     -34.03000000     -74.95010000
H      -45.79580000     -32.39350000     -74.42910000
C      -43.77000000     -33.16680000     -68.42520000
H      -43.65950000     -34.20260000     -68.07280000
H      -42.91750000     -32.59780000     -68.07720000
C      -44.19360000     -33.10550000     -69.94490000
H      -45.23450000     -33.45180000     -70.07030000
H      -44.18260000     -32.16650000     -70.36880000
C      -46.23880000     -33.88910000     -72.79960000
H      -47.04810000     -34.57710000     -72.48880000
H      -46.19350000     -33.21720000     -71.92030000
C      -45.00810000     -34.70880000     -72.93360000
C      -44.88130000     -35.64600000     -73.90480000
C      -43.80060000     -34.60900000     -72.13600000
H      -45.62850000     -35.90190000     -74.61730000
C      -42.79650000     -35.60440000     -72.51670000
C      -43.37590000     -34.10540000     -70.80720000
C      -42.14490000     -34.60740000     -70.41230000
S      -43.31460000     -36.43640000     -73.99010000
S      -41.35750000     -35.60180000     -71.62640000
H      -41.64220000     -34.27660000     -69.51200000
