40
Properties=species:S:1:pos:R:3 #=T CELL(abcABC):=T 1.889726e+02=T 90.00000=T Traj:=T positionsangstrom=T Step:=T 0=T Bead:=T pbc="F F F"
C      -47.90410000     -32.09460000     -68.80620000
C      -46.86590000     -31.29860000     -69.17030000
C      -46.77480000     -30.85010000     -70.52510000
C      -47.81450000     -31.12370000     -71.42780000
C      -48.82500000     -32.00000000     -70.97330000
C      -48.89650000     -32.48070000     -69.67490000
H      -47.86390000     -32.46240000     -67.78650000
H      -45.91550000     -30.22960000     -70.86930000
H      -49.58610000     -32.45820000     -71.57630000
H      -49.67650000     -33.15200000     -69.43610000
C      -47.74280000     -30.78360000     -72.89070000
H      -46.71510000     -30.58460000     -73.11960000
H      -48.45000000     -29.99330000     -73.16780000
C      -45.76840000     -30.92320000     -68.19920000
H      -44.96100000     -30.29040000     -68.69640000
H      -46.21740000     -30.26000000     -67.47860000
S      -48.12430000     -32.21230000     -74.03800000
S      -45.05700000     -32.36180000     -67.28040000
C      -46.51050000     -33.07820000     -73.92320000
H      -46.39200000     -33.65320000     -74.86310000
H      -45.71190000     -32.36520000     -74.00840000
C      -43.87270000     -33.16690000     -68.41150000
H      -43.50470000     -34.10000000     -68.06280000
H      -42.95810000     -32.52300000     -68.37800000
C      -44.40210000     -33.25490000     -69.88380000
H      -45.46360000     -33.62700000     -69.72270000
H      -44.38480000     -32.20970000     -70.35500000
C      -46.28680000     -33.95770000     -72.64270000
H      -47.20770000     -34.58500000     -72.65600000
H      -46.11890000     -33.33940000     -71.83160000
C      -45.01230000     -34.78100000     -72.89120000
C      -44.78330000     -35.48770000     -74.05480000
C      -43.86710000     -34.82850000     -71.96670000
H      -45.35040000     -35.73980000     -74.95900000
C      -42.85940000     -35.64690000     -72.48020000
C      -43.44130000     -34.15750000     -70.81900000
C      -42.11240000     -34.44910000     -70.46460000
S      -43.22350000     -36.29000000     -74.05770000
S      -41.35540000     -35.58000000     -71.59810000
H      -41.55130000     -34.02670000     -69.60350000
