40
Properties=species:S:1:pos:R:3 #=T CELL(abcABC):=T 1.889726e+02=T 90.00000=T Traj:=T positionsangstrom=T Step:=T 0=T Bead:=T pbc="F F F"
C      -43.17740000     -36.45600000     -71.74390000
C      -42.45630000     -35.46030000     -71.03560000
C      -42.22810000     -34.26360000     -71.75990000
C      -42.84640000     -34.08630000     -73.01190000
C      -43.41780000     -35.22650000     -73.75100000
C      -43.57600000     -36.40840000     -73.06990000
H      -43.20040000     -37.45890000     -71.26460000
H      -41.95030000     -33.35760000     -71.26040000
H      -43.86820000     -35.09570000     -74.74990000
H      -44.04590000     -37.18590000     -73.55380000
C      -42.66530000     -32.83500000     -73.73920000
H      -43.49580000     -32.81860000     -74.45000000
H      -41.74060000     -32.81070000     -74.35320000
C      -42.01640000     -35.58390000     -69.59310000
H      -41.82440000     -36.62860000     -69.25090000
H      -41.01780000     -35.12880000     -69.35200000
S      -42.54710000     -31.30020000     -72.74350000
S      -43.30940000     -34.75960000     -68.59150000
C      -44.32560000     -30.82490000     -72.49620000
H      -44.29570000     -29.93540000     -71.96290000
H      -44.71720000     -30.67810000     -73.51150000
C      -44.85640000     -34.72130000     -69.57460000
H      -45.38470000     -35.68410000     -69.60210000
H      -44.64810000     -34.45750000     -70.62400000
C      -45.75430000     -33.69020000     -69.02350000
H      -45.92480000     -34.08510000     -67.95460000
H      -45.26750000     -32.73760000     -68.87650000
C      -45.10270000     -31.85790000     -71.77700000
H      -44.87400000     -31.86950000     -70.74260000
H      -44.81320000     -32.88660000     -72.00530000
C      -46.59580000     -31.79090000     -71.77370000
C      -47.36880000     -31.12510000     -72.76550000
C      -47.37820000     -32.65460000     -70.99890000
H      -47.05440000     -30.39130000     -73.47810000
C      -48.71120000     -32.62100000     -71.29370000
C      -47.09770000     -33.43760000     -69.74490000
C      -48.28640000     -33.88590000     -69.17590000
S      -49.06300000     -31.53480000     -72.61280000
S      -49.77800000     -33.44760000     -70.08500000
H      -48.42270000     -34.49780000     -68.27410000
