40
Properties=species:S:1:pos:R:3 #=T CELL(abcABC):=T 1.889726e+02=T 90.00000=T Traj:=T positionsangstrom=T Step:=T 0=T Bead:=T pbc="F F F"
C      -47.87850000     -35.86450000     -68.72640000
C      -47.40130000     -34.53080000     -68.71340000
C      -47.71990000     -33.58000000     -69.68120000
C      -48.59250000     -33.94440000     -70.68310000
C      -49.00980000     -35.24850000     -70.82940000
C      -48.74830000     -36.17130000     -69.81020000
H      -47.77020000     -36.52820000     -67.85860000
H      -47.38530000     -32.56500000     -69.62890000
H      -49.62420000     -35.59210000     -71.65550000
H      -49.02500000     -37.19130000     -69.88950000
C      -48.94610000     -32.81280000     -71.68770000
H      -48.29490000     -31.95090000     -71.35370000
H      -49.98280000     -32.55220000     -71.69130000
C      -46.53950000     -34.14670000     -67.55680000
H      -46.38670000     -33.06950000     -67.54500000
H      -46.93310000     -34.42660000     -66.54780000
S      -48.61030000     -33.24980000     -73.44190000
S      -44.81840000     -34.82380000     -67.46100000
C      -46.84450000     -32.66990000     -73.57940000
H      -46.73420000     -32.19190000     -74.52890000
H      -46.71990000     -31.92920000     -72.78970000
C      -44.21610000     -34.64020000     -69.24490000
H      -44.64160000     -35.41550000     -69.87390000
H      -43.13380000     -34.91320000     -69.38920000
C      -44.45840000     -33.24990000     -69.94940000
H      -45.41870000     -33.34770000     -70.47490000
H      -44.62970000     -32.45860000     -69.14940000
C      -45.75120000     -33.68840000     -73.33790000
H      -45.88870000     -34.55990000     -74.01790000
H      -45.87510000     -34.13460000     -72.34050000
C      -44.29970000     -33.05900000     -73.49160000
C      -43.83750000     -32.70320000     -74.73330000
C      -43.37890000     -32.73310000     -72.38340000
H      -44.52710000     -32.88200000     -75.53000000
C      -42.27480000     -32.04930000     -72.91880000
C      -43.37340000     -32.78760000     -70.93760000
C      -42.23030000     -32.18940000     -70.47910000
S      -42.32140000     -31.78320000     -74.65690000
S      -41.13390000     -31.50100000     -71.67720000
H      -41.95230000     -32.20670000     -69.45080000
