40
Properties=species:S:1:pos:R:3 #=T CELL(abcABC):=T 1.889726e+02=T 90.00000=T Traj:=T positionsangstrom=T Step:=T 0=T Bead:=T pbc="F F F"
C      -47.32000000     -35.91560000     -68.33040000
C      -46.90970000     -34.61390000     -68.10780000
C      -47.42700000     -33.61260000     -68.95130000
C      -48.23190000     -33.86730000     -70.07840000
C      -48.53160000     -35.16110000     -70.34150000
C      -48.16510000     -36.14810000     -69.43160000
H      -47.03760000     -36.78410000     -67.74160000
H      -47.24310000     -32.51040000     -68.75520000
H      -49.11440000     -35.49530000     -71.21400000
H      -48.53760000     -37.14760000     -69.67520000
C      -48.83920000     -32.73170000     -70.84970000
H      -48.42900000     -31.75190000     -70.62140000
H      -49.88100000     -32.77390000     -70.49330000
C      -45.97750000     -34.26640000     -67.04710000
H      -46.53530000     -33.46140000     -66.49050000
H      -45.93850000     -35.08500000     -66.28070000
S      -48.80240000     -33.04930000     -72.71970000
S      -44.19760000     -33.72310000     -67.51900000
C      -47.03000000     -32.56730000     -72.95280000
H      -46.99080000     -31.96110000     -73.75570000
H      -46.73660000     -32.09410000     -71.99400000
C      -44.04340000     -34.04350000     -69.33030000
H      -44.59680000     -34.96290000     -69.60860000
H      -42.98080000     -34.17610000     -69.38830000
C      -44.51570000     -32.90670000     -70.26900000
H      -45.42750000     -33.29280000     -70.68430000
H      -44.80330000     -32.05680000     -69.60020000
C      -46.22890000     -33.84040000     -73.27100000
H      -46.64990000     -34.43240000     -74.08900000
H      -46.29510000     -34.63520000     -72.53840000
C      -44.80210000     -33.40220000     -73.64730000
C      -44.44040000     -33.45420000     -74.96020000
C      -43.71770000     -32.79010000     -72.83750000
H      -45.02840000     -34.01680000     -75.69400000
C      -42.69770000     -32.26400000     -73.63180000
C      -43.51230000     -32.61070000     -71.40890000
C      -42.31500000     -32.07690000     -71.14660000
S      -42.81300000     -32.77090000     -75.27990000
S      -41.39660000     -31.71720000     -72.67940000
H      -41.81130000     -31.94470000     -70.13950000
