40
Properties=species:S:1:pos:R:3 #=T CELL(abcABC):=T 1.889726e+02=T 90.00000=T Traj:=T positionsangstrom=T Step:=T 0=T Bead:=T pbc="F F F"
C      -45.28000000     -30.07120000     -73.88670000
C      -45.43230000     -31.36090000     -74.43770000
C      -44.32990000     -32.30630000     -74.32310000
C      -43.10490000     -31.89260000     -73.79080000
C      -43.01400000     -30.62380000     -73.20990000
C      -44.08410000     -29.73330000     -73.21690000
H      -46.06690000     -29.38210000     -73.92740000
H      -44.41970000     -33.26110000     -74.81830000
H      -42.07620000     -30.33730000     -72.80300000
H      -44.06350000     -28.66060000     -72.96860000
C      -41.94720000     -32.85490000     -73.70410000
H      -40.98860000     -32.45500000     -74.03250000
H      -42.04660000     -33.73100000     -74.36880000
C      -46.72180000     -31.75240000     -75.00710000
H      -47.50490000     -30.95390000     -74.95980000
H      -46.67480000     -32.05520000     -76.05040000
S      -41.70620000     -33.49740000     -71.96460000
S      -47.56960000     -33.31620000     -74.24860000
C      -43.35560000     -33.46440000     -71.06060000
H      -43.33170000     -32.71690000     -70.35680000
H      -44.12040000     -33.26230000     -71.80030000
C      -46.84740000     -33.24820000     -72.50940000
H      -47.53320000     -32.73960000     -71.91430000
H      -45.88830000     -32.68030000     -72.48230000
C      -46.65180000     -34.66560000     -71.83450000
H      -47.21190000     -35.48330000     -72.40010000
H      -45.59840000     -34.83250000     -71.97590000
C      -43.59290000     -34.86660000     -70.35820000
H      -42.58100000     -35.20470000     -70.08560000
H      -43.92930000     -35.63380000     -71.08150000
C      -44.59840000     -34.82680000     -69.25250000
C      -44.17100000     -34.76230000     -67.93690000
C      -46.02270000     -34.70870000     -69.29600000
H      -43.14430000     -34.85880000     -67.57300000
C      -46.64420000     -34.67500000     -68.05750000
C      -46.96760000     -34.67050000     -70.39860000
C      -48.30510000     -34.63500000     -70.02620000
S      -45.45760000     -34.61030000     -66.76670000
S      -48.45160000     -34.51410000     -68.21790000
H      -49.23140000     -34.44020000     -70.62210000
