40
Properties=species:S:1:pos:R:3 #=T CELL(abcABC):=T 1.889726e+02=T 90.00000=T Traj:=T positionsangstrom=T Step:=T 0=T Bead:=T pbc="F F F"
C      -48.04660000     -31.75480000     -68.53040000
C      -46.87730000     -31.14530000     -69.02070000
C      -46.82060000     -30.87870000     -70.38570000
C      -47.90300000     -31.14800000     -71.25570000
C      -49.04350000     -31.73130000     -70.72690000
C      -49.19020000     -32.07160000     -69.38900000
H      -48.00480000     -32.13610000     -67.48040000
H      -45.94180000     -30.45100000     -70.94480000
H      -49.81950000     -32.06530000     -71.48580000
H      -50.08840000     -32.59440000     -69.07260000
C      -47.78860000     -30.72000000     -72.70000000
H      -46.88300000     -30.16820000     -72.81950000
H      -48.60620000     -30.07140000     -73.01250000
C      -45.66600000     -30.94220000     -68.11790000
H      -44.89100000     -30.31150000     -68.61680000
H      -45.97700000     -30.40420000     -67.23490000
S      -47.78330000     -32.02660000     -74.05290000
S      -45.04980000     -32.47640000     -67.39840000
C      -46.21830000     -32.94950000     -73.85510000
H      -46.16810000     -33.30410000     -74.89400000
H      -45.26740000     -32.39380000     -73.67050000
C      -44.00200000     -33.33940000     -68.58190000
H      -43.68210000     -34.18050000     -68.01470000
H      -43.13160000     -32.71430000     -68.81240000
C      -44.62140000     -33.70560000     -69.88000000
H      -45.48130000     -34.33590000     -69.72780000
H      -45.09220000     -32.80690000     -70.27270000
C      -46.18810000     -34.06530000     -72.85870000
H      -47.22850000     -34.53540000     -72.72860000
H      -46.03940000     -33.69840000     -71.81880000
C      -45.02140000     -34.98960000     -73.04060000
C      -44.72390000     -35.57250000     -74.24920000
C      -43.90840000     -34.95350000     -72.12000000
H      -45.53370000     -35.80390000     -74.96960000
C      -42.81490000     -35.56990000     -72.66050000
C      -43.67010000     -34.43570000     -70.76990000
C      -42.33110000     -34.57380000     -70.41620000
S      -43.08490000     -36.31290000     -74.25250000
S      -41.37830000     -35.53890000     -71.55940000
H      -41.89360000     -34.27340000     -69.50660000
