40
Properties=species:S:1:pos:R:3 #=T CELL(abcABC):=T 1.889726e+02=T 90.00000=T Traj:=T positionsangstrom=T Step:=T 0=T Bead:=T pbc="F F F"
C      -45.07570000     -29.78960000     -73.83850000
C      -45.51450000     -31.11500000     -74.07240000
C      -44.58790000     -32.17160000     -73.91300000
C      -43.18450000     -31.90250000     -73.86890000
C      -42.78860000     -30.56480000     -73.91960000
C      -43.67380000     -29.49270000     -73.79370000
H      -45.70790000     -28.94070000     -73.51690000
H      -45.01760000     -33.16390000     -73.69160000
H      -41.70340000     -30.28780000     -73.98770000
H      -43.31320000     -28.46140000     -73.65040000
C      -42.17490000     -32.98490000     -73.86170000
H      -41.25120000     -32.81600000     -74.41720000
H      -42.55910000     -33.98810000     -74.07020000
C      -46.97480000     -31.40790000     -74.33160000
H      -47.58070000     -30.84020000     -73.63580000
H      -47.22290000     -31.06380000     -75.32400000
S      -41.66230000     -33.15080000     -72.01200000
S      -47.48850000     -33.17180000     -74.30750000
C      -43.15350000     -33.18540000     -70.96230000
H      -42.82720000     -32.67490000     -70.07010000
H      -44.10820000     -32.65360000     -71.40430000
C      -47.76630000     -33.50190000     -72.46200000
H      -48.72180000     -34.00420000     -72.33800000
H      -48.00800000     -32.50260000     -71.83200000
C      -46.75180000     -34.28660000     -71.73560000
H      -46.49600000     -35.12990000     -72.34870000
H      -45.85250000     -33.69560000     -71.59410000
C      -43.57290000     -34.64750000     -70.55120000
H      -42.55430000     -34.94190000     -70.30860000
H      -43.93240000     -35.13790000     -71.44050000
C      -44.57620000     -34.74050000     -69.34340000
C      -44.05140000     -34.98810000     -68.10120000
C      -46.03710000     -34.86130000     -69.39680000
H      -42.97560000     -34.89120000     -67.78250000
C      -46.57590000     -34.99300000     -68.04080000
C      -47.07340000     -34.69720000     -70.35690000
C      -48.33970000     -34.82370000     -69.83010000
S      -45.36030000     -34.88230000     -66.84780000
S      -48.28610000     -35.17900000     -68.08500000
H      -49.35820000     -34.80190000     -70.20420000
