40
Properties=species:S:1:pos:R:3 #=T CELL(abcABC):=T 1.889726e+02=T 90.00000=T Traj:=T positionsangstrom=T Step:=T 0=T Bead:=T pbc="F F F"
C      -46.84340000     -36.01510000     -68.88510000
C      -46.85420000     -34.63600000     -68.57320000
C      -47.72540000     -33.79280000     -69.29210000
C      -48.50210000     -34.29080000     -70.40010000
C      -48.41300000     -35.65500000     -70.71790000
C      -47.64640000     -36.52100000     -69.96300000
H      -46.26340000     -36.70970000     -68.23790000
H      -47.83320000     -32.75970000     -68.99200000
H      -48.95690000     -36.03150000     -71.55340000
H      -47.61280000     -37.59360000     -70.06200000
C      -49.29780000     -33.33230000     -71.18210000
H      -49.12590000     -32.31290000     -70.83580000
H      -50.42320000     -33.55290000     -71.03340000
C      -46.00670000     -34.03450000     -67.46100000
H      -46.08690000     -32.94370000     -67.44410000
H      -46.22260000     -34.50910000     -66.45780000
S      -49.02740000     -33.16570000     -72.97430000
S      -44.30110000     -34.53640000     -67.75120000
C      -47.23610000     -32.48320000     -73.17050000
H      -47.10850000     -32.38250000     -74.26810000
H      -47.10220000     -31.51340000     -72.75280000
C      -43.97400000     -33.94300000     -69.47090000
H      -44.57950000     -34.34020000     -70.29490000
H      -42.94730000     -34.21730000     -69.70550000
C      -44.10550000     -32.42370000     -69.78280000
H      -45.17580000     -32.22270000     -69.99850000
H      -43.79680000     -31.73570000     -69.02570000
C      -46.19630000     -33.38340000     -72.51230000
H      -46.33680000     -34.47340000     -72.56880000
H      -46.31860000     -33.15460000     -71.44530000
C      -44.82310000     -32.97550000     -73.11810000
C      -44.60480000     -33.12130000     -74.44180000
C      -43.67260000     -32.46270000     -72.41400000
H      -45.28460000     -33.49780000     -75.12790000
C      -42.65640000     -32.13090000     -73.28930000
C      -43.31850000     -32.05720000     -71.04890000
C      -42.08120000     -31.54370000     -70.89120000
S      -42.95930000     -32.64580000     -74.95510000
S      -41.23960000     -31.56720000     -72.47900000
H      -41.66570000     -31.33800000     -69.93010000
