40
Properties=species:S:1:pos:R:3 #=T CELL(abcABC):=T 1.889726e+02=T 90.00000=T Traj:=T positionsangstrom=T Step:=T 0=T Bead:=T pbc="F F F"
C      -46.93520000     -35.86440000     -68.60710000
C      -46.77810000     -34.56960000     -68.16770000
C      -47.32580000     -33.48720000     -68.89350000
C      -48.22950000     -33.77150000     -69.97480000
C      -48.34500000     -35.10710000     -70.42690000
C      -47.65570000     -36.13740000     -69.79280000
H      -46.34710000     -36.67210000     -68.08730000
H      -47.20500000     -32.41450000     -68.61360000
H      -49.07610000     -35.39100000     -71.20030000
H      -47.53070000     -37.08780000     -70.25700000
C      -49.05740000     -32.60130000     -70.65050000
H      -48.70510000     -31.70270000     -70.08810000
H      -50.03260000     -32.82770000     -70.33560000
C      -45.87480000     -34.26510000     -66.95370000
H      -46.14840000     -33.51660000     -66.28830000
H      -45.66070000     -35.17040000     -66.43460000
S      -48.96140000     -32.47280000     -72.39770000
S      -44.21960000     -33.52120000     -67.50830000
C      -47.19080000     -32.23990000     -72.69940000
H      -47.11070000     -31.60540000     -73.58080000
H      -46.72600000     -31.49150000     -71.95290000
C      -43.90200000     -33.77370000     -69.37780000
H      -44.67490000     -34.47620000     -69.73450000
H      -42.93910000     -34.29920000     -69.48040000
C      -44.07090000     -32.48090000     -70.25920000
H      -45.18870000     -32.23910000     -70.48070000
H      -43.63420000     -31.63440000     -69.74280000
C      -46.34950000     -33.57170000     -72.74320000
H      -46.90490000     -34.41050000     -73.20520000
H      -46.22690000     -33.88330000     -71.64670000
C      -45.06070000     -33.39420000     -73.39750000
C      -45.00260000     -33.53650000     -74.75140000
C      -43.79730000     -32.94340000     -72.84600000
H      -45.82100000     -33.64150000     -75.37330000
C      -42.74280000     -32.79640000     -73.81320000
C      -43.29270000     -32.60110000     -71.52850000
C      -41.93570000     -32.39730000     -71.46140000
S      -43.36910000     -33.16390000     -75.36640000
S      -41.17910000     -32.50200000     -73.07160000
H      -41.38200000     -32.16190000     -70.57950000
