40
Properties=species:S:1:pos:R:3 #=T CELL(abcABC):=T 1.889726e+02=T 90.00000=T Traj:=T positionsangstrom=T Step:=T 0=T Bead:=T pbc="F F F"
C      -43.11020000     -36.60780000     -71.69500000
C      -42.63490000     -35.56050000     -70.92050000
C      -42.33650000     -34.29760000     -71.48770000
C      -42.45220000     -34.15610000     -72.90170000
C      -43.03950000     -35.22040000     -73.63870000
C      -43.47960000     -36.39420000     -73.03190000
H      -43.43220000     -37.57070000     -71.28700000
H      -42.12970000     -33.45850000     -70.88830000
H      -43.45720000     -35.02280000     -74.66060000
H      -43.99290000     -37.21570000     -73.55130000
C      -41.97870000     -32.90200000     -73.60720000
H      -42.21870000     -32.85540000     -74.67350000
H      -40.92370000     -32.86720000     -73.53540000
C      -42.50900000     -35.74210000     -69.41590000
H      -42.95000000     -36.63560000     -69.09360000
H      -41.50310000     -35.70050000     -69.06540000
S      -42.54570000     -31.24100000     -72.94830000
S      -43.41000000     -34.40880000     -68.49950000
C      -44.37890000     -31.38590000     -73.01820000
H      -44.83740000     -30.39920000     -73.23750000
H      -44.62680000     -32.01130000     -73.89110000
C      -45.20540000     -34.69340000     -69.09390000
H      -45.59250000     -35.56850000     -68.55430000
H      -45.24900000     -34.88290000     -70.15450000
C      -45.97190000     -33.38370000     -68.84780000
H      -46.12270000     -33.26010000     -67.71540000
H      -45.31540000     -32.59980000     -69.19180000
C      -45.07950000     -31.76220000     -71.71870000
H      -44.80510000     -31.17030000     -70.84430000
H      -44.82190000     -32.73210000     -71.33190000
C      -46.57100000     -31.76210000     -71.82030000
C      -47.35220000     -31.10490000     -72.79180000
C      -47.38520000     -32.54460000     -70.90930000
H      -46.95540000     -30.49150000     -73.57770000
C      -48.71140000     -32.51950000     -71.30160000
C      -47.22350000     -33.27850000     -69.69170000
C      -48.34590000     -33.99300000     -69.30390000
S      -49.02090000     -31.57800000     -72.71480000
S      -49.73380000     -33.63410000     -70.34680000
H      -48.33300000     -34.48300000     -68.34750000
