40
Properties=species:S:1:pos:R:3 #=T CELL(abcABC):=T 1.889726e+02=T 90.00000=T Traj:=T positionsangstrom=T Step:=T 0=T Bead:=T pbc="F F F"
C      -47.05110000     -36.31030000     -68.56750000
C      -46.30800000     -35.13570000     -68.34520000
C      -46.89510000     -33.96400000     -68.73620000
C      -48.14740000     -33.87950000     -69.43520000
C      -48.86180000     -35.10010000     -69.57820000
C      -48.29760000     -36.27780000     -69.10770000
H      -46.63890000     -37.25580000     -68.25270000
H      -46.41080000     -32.98170000     -68.44160000
H      -49.87360000     -35.05140000     -70.08020000
H      -48.80190000     -37.22240000     -69.18420000
C      -48.76590000     -32.52510000     -69.85850000
H      -48.12560000     -31.79530000     -69.44070000
H      -49.78740000     -32.43300000     -69.58240000
C      -44.99790000     -35.25160000     -67.63050000
H      -45.15220000     -35.36070000     -66.57420000
H      -44.48060000     -36.15110000     -67.88020000
S      -48.79700000     -32.42500000     -71.71460000
S      -43.86450000     -33.82160000     -67.82980000
C      -47.04230000     -32.26440000     -72.22270000
H      -47.06330000     -31.54520000     -73.12140000
H      -46.54100000     -31.69440000     -71.41640000
C      -43.56020000     -33.79520000     -69.69560000
H      -44.20810000     -34.52490000     -70.21910000
H      -42.47570000     -34.11190000     -69.90820000
C      -43.74970000     -32.47840000     -70.36770000
H      -44.74330000     -32.15290000     -70.36990000
H      -43.20330000     -31.62090000     -69.90070000
C      -46.34040000     -33.56190000     -72.48360000
H      -47.05330000     -34.27140000     -72.97720000
H      -45.91950000     -33.96690000     -71.64810000
C      -45.20590000     -33.38660000     -73.40140000
C      -45.20000000     -33.65710000     -74.72560000
C      -44.00460000     -32.68840000     -73.01170000
H      -46.06350000     -34.08960000     -75.32670000
C      -43.18930000     -32.29260000     -74.12590000
C      -43.26030000     -32.43290000     -71.77770000
C      -41.98400000     -32.02080000     -71.97980000
S      -43.80880000     -33.01860000     -75.61880000
S      -41.62340000     -31.73480000     -73.71570000
H      -41.34570000     -31.70880000     -71.16110000
