40
Properties=species:S:1:pos:R:3 #=T CELL(abcABC):=T 1.889726e+02=T 90.00000=T Traj:=T positionsangstrom=T Step:=T 0=T Bead:=T pbc="F F F"
C      -46.98120000     -36.29710000     -68.50340000
C      -46.29840000     -35.09900000     -68.35830000
C      -46.94400000     -33.96470000     -68.83610000
C      -48.21860000     -33.99820000     -69.41780000
C      -48.80860000     -35.21330000     -69.62020000
C      -48.19610000     -36.39000000     -69.11210000
H      -46.55980000     -37.16800000     -68.02740000
H      -46.44640000     -32.93750000     -68.73340000
H      -49.79520000     -35.26280000     -70.12560000
H      -48.74790000     -37.33210000     -69.05950000
C      -48.91140000     -32.74710000     -69.80760000
H      -48.36700000     -31.83700000     -69.32870000
H      -50.00660000     -32.73270000     -69.50010000
C      -45.02390000     -35.09830000     -67.56000000
H      -45.27910000     -34.98150000     -66.43180000
H      -44.45290000     -36.08030000     -67.60700000
S      -48.89390000     -32.49700000     -71.65430000
S      -43.69090000     -33.85930000     -67.83650000
C      -47.14280000     -32.37400000     -72.19380000
H      -47.16270000     -31.74900000     -73.15500000
H      -46.53480000     -31.88940000     -71.41030000
C      -43.17050000     -33.85770000     -69.60840000
H      -43.35990000     -34.79600000     -70.09460000
H      -42.12510000     -33.69760000     -69.59590000
C      -43.87870000     -32.65170000     -70.39300000
H      -44.95710000     -32.85600000     -70.44340000
H      -43.79430000     -31.84980000     -69.67710000
C      -46.45890000     -33.65940000     -72.68540000
H      -47.29360000     -34.21350000     -73.18110000
H      -46.16510000     -34.25780000     -71.85050000
C      -45.21210000     -33.33260000     -73.44040000
C      -45.31230000     -33.39320000     -74.79280000
C      -43.92300000     -32.73520000     -73.02650000
H      -46.18210000     -33.69920000     -75.38810000
C      -43.07650000     -32.53320000     -74.10930000
C      -43.32660000     -32.26490000     -71.81410000
C      -42.21140000     -31.52100000     -72.03810000
S      -43.79630000     -32.88180000     -75.61740000
S      -41.59570000     -31.70770000     -73.68800000
H      -41.58720000     -31.03530000     -71.32970000
