40
Properties=species:S:1:pos:R:3 #=T CELL(abcABC):=T 1.889726e+02=T 90.00000=T Traj:=T positionsangstrom=T Step:=T 0=T Bead:=T pbc="F F F"
C      -46.77190000     -36.37050000     -68.72040000
C      -46.17610000     -35.17950000     -68.41420000
C      -46.89660000     -34.01910000     -68.77860000
C      -48.11580000     -34.05510000     -69.39960000
C      -48.73270000     -35.29230000     -69.55270000
C      -48.08780000     -36.51810000     -69.27230000
H      -46.22940000     -37.27600000     -68.58700000
H      -46.43230000     -33.05540000     -68.54700000
H      -49.68750000     -35.31400000     -69.98930000
H      -48.53580000     -37.48450000     -69.58200000
C      -48.81230000     -32.81150000     -69.88800000
H      -48.37440000     -31.90050000     -69.61220000
H      -49.77550000     -32.71740000     -69.45060000
C      -44.77250000     -35.24940000     -67.78820000
H      -44.89980000     -35.53710000     -66.80410000
H      -44.36290000     -36.01460000     -68.36600000
S      -49.04910000     -32.69950000     -71.74400000
S      -43.65130000     -33.69700000     -67.82310000
C      -47.25770000     -32.27500000     -72.13360000
H      -47.38710000     -31.71860000     -72.99980000
H      -46.79220000     -31.59790000     -71.44580000
C      -43.20750000     -33.61770000     -69.66210000
H      -43.54790000     -34.63450000     -69.99110000
H      -42.10740000     -33.48670000     -69.68060000
C      -44.05420000     -32.53830000     -70.38070000
H      -45.14710000     -32.83150000     -70.36610000
H      -44.06320000     -31.54630000     -69.94850000
C      -46.42950000     -33.52180000     -72.50930000
H      -46.93330000     -34.37500000     -72.89620000
H      -45.97710000     -33.96320000     -71.53560000
C      -45.30470000     -33.24170000     -73.48920000
C      -45.31650000     -33.26110000     -74.87950000
C      -44.00450000     -32.72000000     -73.02710000
H      -46.10670000     -33.68380000     -75.42500000
C      -43.12650000     -32.42880000     -74.06620000
C      -43.38800000     -32.50070000     -71.76360000
C      -42.09580000     -32.07440000     -71.87310000
S      -43.84360000     -32.70050000     -75.59610000
S      -41.66780000     -31.62340000     -73.48770000
H      -41.47920000     -31.91830000     -70.98120000
