40
Properties=species:S:1:pos:R:3 #=T CELL(abcABC):=T 1.889726e+02=T 90.00000=T Traj:=T positionsangstrom=T Step:=T 0=T Bead:=T pbc="F F F"
C      -42.95240000     -33.55630000     -74.47020000
C      -43.02800000     -32.32340000     -73.72510000
C      -44.23850000     -31.61390000     -73.73990000
C      -45.31340000     -32.02260000     -74.59830000
C      -45.17540000     -33.22710000     -75.33120000
C      -43.98190000     -33.94860000     -75.24520000
H      -42.04550000     -34.16150000     -74.43360000
H      -44.29100000     -30.70730000     -73.19420000
H      -45.90040000     -33.44870000     -76.07230000
H      -43.97860000     -34.89280000     -75.80090000
C      -46.64140000     -31.29630000     -74.67530000
H      -47.45690000     -31.93210000     -75.11770000
H      -46.56950000     -30.41430000     -75.42850000
C      -41.83600000     -31.90050000     -72.94960000
H      -40.99780000     -32.55430000     -73.09800000
H      -41.45080000     -30.91070000     -73.26700000
S      -47.19860000     -30.68040000     -73.00440000
S      -42.06610000     -31.75980000     -71.08490000
C      -47.74090000     -32.17830000     -72.04600000
H      -48.27160000     -31.84340000     -71.10160000
H      -48.34180000     -32.83100000     -72.69870000
C      -43.13410000     -33.24810000     -70.62070000
H      -42.37260000     -34.15770000     -70.58650000
H      -43.85650000     -33.40600000     -71.49330000
C      -43.84830000     -32.94120000     -69.34610000
H      -43.21260000     -32.83180000     -68.43330000
H      -44.40130000     -32.00200000     -69.42380000
C      -46.54060000     -32.92800000     -71.48790000
H      -45.82820000     -32.23030000     -71.02150000
H      -45.89230000     -33.39590000     -72.21090000
C      -46.99090000     -34.03140000     -70.44810000
C      -48.12900000     -34.78480000     -70.44860000
C      -46.03920000     -34.49910000     -69.45780000
H      -48.93690000     -34.44300000     -71.05200000
C      -46.61270000     -35.48960000     -68.65470000
C      -44.80750000     -34.06050000     -68.91070000
C      -44.44730000     -34.78450000     -67.78350000
S      -48.15280000     -36.07540000     -69.22720000
S      -45.58790000     -36.09250000     -67.35740000
H      -43.71640000     -34.56070000     -67.00520000
