40
Properties=species:S:1:pos:R:3 #=T CELL(abcABC):=T 1.889726e+02=T 90.00000=T Traj:=T positionsangstrom=T Step:=T 0=T Bead:=T pbc="F F F"
C      -45.07410000     -30.24880000     -73.81530000
C      -45.85470000     -31.41760000     -74.21960000
C      -45.16200000     -32.60130000     -74.40680000
C      -43.80020000     -32.65300000     -74.25370000
C      -43.05660000     -31.50030000     -73.92630000
C      -43.66870000     -30.24530000     -73.75750000
H      -45.55560000     -29.30230000     -73.73990000
H      -45.81140000     -33.42870000     -74.68600000
H      -41.94860000     -31.57040000     -73.84430000
H      -43.07160000     -29.26060000     -73.70880000
C      -42.96910000     -33.84920000     -74.47450000
H      -41.87950000     -33.79040000     -74.10000000
H      -42.91680000     -33.97120000     -75.53860000
C      -47.37750000     -31.22680000     -74.24200000
H      -47.75290000     -30.35870000     -73.69310000
H      -47.90010000     -31.16000000     -75.21840000
S      -43.80100000     -35.41180000     -73.84300000
S      -48.20510000     -32.57880000     -73.28500000
C      -43.70990000     -34.91370000     -71.98320000
H      -42.67110000     -35.03390000     -71.63190000
H      -43.97200000     -33.84970000     -72.00260000
C      -47.23380000     -32.53890000     -71.73550000
H      -47.16600000     -31.52760000     -71.34420000
H      -46.17490000     -32.62120000     -72.05880000
C      -47.57190000     -33.65070000     -70.77170000
H      -48.65360000     -33.55160000     -70.54190000
H      -47.35800000     -34.68700000     -71.15290000
C      -44.64070000     -35.66000000     -71.09090000
H      -44.39180000     -36.69430000     -71.09020000
H      -45.59170000     -35.52260000     -71.69860000
C      -44.68610000     -35.12320000     -69.69680000
C      -43.58160000     -35.39170000     -68.88270000
C      -45.61890000     -34.22780000     -69.06520000
H      -42.76110000     -35.93600000     -69.26220000
C      -45.21290000     -33.96690000     -67.75880000
C      -46.79130000     -33.51850000     -69.45880000
C      -47.29100000     -32.79130000     -68.42510000
S      -43.72370000     -34.73010000     -67.29880000
S      -46.39070000     -33.01210000     -66.91710000
H      -48.12170000     -32.11250000     -68.33630000
