40
Properties=species:S:1:pos:R:3 #=T CELL(abcABC):=T 1.889726e+02=T 90.00000=T Traj:=T positionsangstrom=T Step:=T 0=T Bead:=T pbc="F F F"
C      -45.10480000     -30.31270000     -74.14300000
C      -45.73270000     -31.52020000     -74.27630000
C      -44.93800000     -32.71370000     -74.36750000
C      -43.54480000     -32.68590000     -74.31310000
C      -42.93870000     -31.45120000     -74.06560000
C      -43.69250000     -30.29370000     -74.02060000
H      -45.60290000     -29.33550000     -74.21880000
H      -45.47010000     -33.58560000     -74.58340000
H      -41.86530000     -31.43610000     -73.94980000
H      -43.17220000     -29.31440000     -73.90630000
C      -42.67860000     -33.89850000     -74.44110000
H      -41.61930000     -33.60840000     -74.30820000
H      -42.91490000     -34.32340000     -75.37480000
C      -47.20540000     -31.59080000     -74.47570000
H      -47.72510000     -30.72380000     -74.06480000
H      -47.54250000     -31.62970000     -75.49670000
S      -43.31020000     -35.34560000     -73.38620000
S      -47.90790000     -33.04740000     -73.59520000
C      -44.10780000     -34.50170000     -72.01790000
H      -43.33180000     -33.79290000     -71.59590000
H      -44.98760000     -34.00570000     -72.25470000
C      -47.58140000     -32.64800000     -71.75880000
H      -48.38240000     -31.97190000     -71.41830000
H      -46.71890000     -31.97240000     -71.74990000
C      -47.50800000     -33.89840000     -70.88730000
H      -48.53300000     -34.49360000     -70.95580000
H      -46.85460000     -34.64900000     -71.27150000
C      -44.54770000     -35.61350000     -70.97640000
H      -43.84390000     -36.52670000     -70.82780000
H      -45.41710000     -36.06770000     -71.36620000
C      -44.65570000     -34.99560000     -69.56530000
C      -43.70470000     -35.31460000     -68.58720000
C      -45.73900000     -34.19870000     -69.00650000
H      -42.82820000     -35.87040000     -68.75060000
C      -45.50080000     -33.84750000     -67.66210000
C      -46.99660000     -33.60170000     -69.48100000
C      -47.63680000     -32.75680000     -68.57340000
S      -43.99890000     -34.49780000     -67.03570000
S      -46.66230000     -32.69100000     -67.04180000
H      -48.45210000     -32.08060000     -68.82420000
