40
Properties=species:S:1:pos:R:3 #=T CELL(abcABC):=T 1.889726e+02=T 90.00000=T Traj:=T positionsangstrom=T Step:=T 0=T Bead:=T pbc="F F F"
C      -45.12310000     -30.36900000     -74.07820000
C      -45.73700000     -31.64140000     -74.30140000
C      -44.87230000     -32.70710000     -74.56780000
C      -43.47990000     -32.63600000     -74.36310000
C      -42.97330000     -31.45590000     -73.87630000
C      -43.77770000     -30.26360000     -73.80390000
H      -45.85010000     -29.52030000     -73.97290000
H      -45.16490000     -33.69720000     -74.90160000
H      -41.86940000     -31.30510000     -73.76570000
H      -43.23980000     -29.28580000     -73.60700000
C      -42.63500000     -33.88160000     -74.45950000
H      -41.61180000     -33.60990000     -74.26290000
H      -42.62090000     -34.25940000     -75.53500000
C      -47.23300000     -31.75940000     -74.52640000
H      -47.68740000     -30.76800000     -74.48140000
H      -47.29330000     -32.03270000     -75.60020000
S      -43.24360000     -35.22720000     -73.43810000
S      -48.02720000     -33.12160000     -73.58810000
C      -43.69400000     -34.48710000     -71.79910000
H      -42.69180000     -34.04540000     -71.47140000
H      -44.40160000     -33.66760000     -71.78120000
C      -47.81220000     -32.67620000     -71.84830000
H      -48.76370000     -32.22660000     -71.45930000
H      -47.03830000     -31.95740000     -71.79290000
C      -47.50520000     -33.94610000     -70.95300000
H      -48.42600000     -34.55930000     -70.97360000
H      -46.78130000     -34.51030000     -71.51900000
C      -44.27660000     -35.59910000     -70.87710000
H      -43.62160000     -36.39840000     -70.79450000
H      -45.20980000     -35.94850000     -71.30010000
C      -44.51570000     -34.96380000     -69.49860000
C      -43.64630000     -35.19090000     -68.44980000
C      -45.66400000     -34.20570000     -69.06030000
H      -42.74010000     -35.72510000     -68.36260000
C      -45.53700000     -33.75160000     -67.76050000
C      -46.95870000     -33.70930000     -69.59790000
C      -47.62640000     -32.90430000     -68.70830000
S      -44.10310000     -34.36500000     -66.92180000
S      -46.83500000     -32.72920000     -67.16060000
H      -48.65920000     -32.65540000     -68.82440000
