40
Properties=species:S:1:pos:R:3 #=T CELL(abcABC):=T 1.889726e+02=T 90.00000=T Traj:=T positionsangstrom=T Step:=T 0=T Bead:=T pbc="F F F"
C      -45.16240000     -30.33840000     -73.47750000
C      -45.99950000     -31.32100000     -74.07010000
C      -45.47210000     -32.48140000     -74.68290000
C      -44.09160000     -32.67790000     -74.72630000
C      -43.28670000     -31.70090000     -74.09610000
C      -43.77270000     -30.52460000     -73.47740000
H      -45.54360000     -29.40050000     -73.01410000
H      -46.04240000     -33.33340000     -74.97840000
H      -42.18520000     -31.77440000     -74.12350000
H      -43.04020000     -29.91840000     -72.93530000
C      -43.58900000     -34.01230000     -75.22180000
H      -42.53840000     -33.92850000     -75.48390000
H      -44.14180000     -34.34470000     -76.07270000
C      -47.44440000     -31.08560000     -73.89380000
H      -47.71270000     -30.11560000     -73.50200000
H      -47.97810000     -31.21940000     -74.82760000
S      -43.63290000     -35.37610000     -74.00570000
S      -48.17160000     -32.44690000     -72.86880000
C      -43.81150000     -34.60310000     -72.39830000
H      -42.76720000     -34.71130000     -71.94920000
H      -44.07340000     -33.60660000     -72.53130000
C      -47.29450000     -32.36580000     -71.29160000
H      -47.42550000     -31.42050000     -70.68990000
H      -46.21800000     -32.39350000     -71.38490000
C      -47.69680000     -33.54170000     -70.49910000
H      -48.85620000     -33.51730000     -70.21620000
H      -47.65020000     -34.49290000     -70.97550000
C      -44.79620000     -35.27700000     -71.43430000
H      -44.82190000     -36.33790000     -71.64900000
H      -45.72270000     -34.94430000     -71.67980000
C      -44.58580000     -34.85930000     -69.96270000
C      -43.34010000     -35.08650000     -69.27930000
C      -45.53920000     -34.26930000     -69.08590000
H      -42.48490000     -35.37740000     -69.76970000
C      -45.05620000     -34.17180000     -67.78820000
C      -46.87900000     -33.69820000     -69.17690000
C      -47.27190000     -33.11330000     -68.00460000
S      -43.41060000     -34.71220000     -67.56740000
S      -46.11740000     -33.37470000     -66.68150000
H      -48.24850000     -32.63350000     -67.70360000
