40
Properties=species:S:1:pos:R:3 #=T CELL(abcABC):=T 1.889726e+02=T 90.00000=T Traj:=T positionsangstrom=T Step:=T 0=T Bead:=T pbc="F F F"
C      -45.02060000     -30.16120000     -73.76830000
C      -45.99610000     -31.20740000     -73.89940000
C      -45.61130000     -32.51930000     -74.31580000
C      -44.26150000     -32.79840000     -74.77540000
C      -43.37580000     -31.69510000     -74.57340000
C      -43.68200000     -30.43230000     -74.07490000
H      -45.25980000     -29.16930000     -73.42930000
H      -46.49480000     -33.22860000     -74.44130000
H      -42.34950000     -31.96030000     -74.76990000
H      -42.89500000     -29.68180000     -74.11030000
C      -43.70440000     -34.05450000     -75.34880000
H      -42.69860000     -33.91730000     -75.67530000
H      -44.29970000     -34.37240000     -76.19910000
C      -47.45130000     -30.92130000     -73.62090000
H      -47.57140000     -30.03660000     -73.09180000
H      -47.93950000     -30.78400000     -74.48090000
S      -43.74320000     -35.46710000     -74.05640000
S      -48.48890000     -32.12160000     -72.71780000
C      -43.56230000     -34.59760000     -72.44640000
H      -42.56870000     -34.81810000     -72.09480000
H      -43.56300000     -33.42870000     -72.43290000
C      -47.30150000     -32.49090000     -71.36230000
H      -47.18960000     -31.63870000     -70.67970000
H      -46.36330000     -32.61240000     -71.91970000
C      -47.61760000     -33.77000000     -70.47470000
H      -48.69410000     -33.72720000     -70.16410000
H      -47.48710000     -34.73630000     -71.12050000
C      -44.58350000     -35.00310000     -71.39020000
H      -44.68420000     -36.10830000     -71.45280000
H      -45.48390000     -34.52020000     -71.69960000
C      -44.37080000     -34.62530000     -69.90500000
C      -43.16110000     -34.88260000     -69.23880000
C      -45.36640000     -34.14840000     -69.01370000
H      -42.25210000     -35.33880000     -69.64030000
C      -44.94690000     -34.14860000     -67.71130000
C      -46.76410000     -33.76680000     -69.17320000
C      -47.35350000     -33.51910000     -67.95090000
S      -43.28280000     -34.73540000     -67.51680000
S      -46.21790000     -33.73380000     -66.60380000
H      -48.35900000     -33.29080000     -67.68070000
