40
Properties=species:S:1:pos:R:3 #=T CELL(abcABC):=T 1.889726e+02=T 90.00000=T Traj:=T positionsangstrom=T Step:=T 0=T Bead:=T pbc="F F F"
C      -45.09050000     -30.17760000     -73.88410000
C      -45.94220000     -31.22380000     -73.88800000
C      -45.59920000     -32.49840000     -74.33670000
C      -44.29750000     -32.68210000     -74.75370000
C      -43.35670000     -31.62450000     -74.68870000
C      -43.83170000     -30.33820000     -74.42040000
H      -45.45070000     -29.23820000     -73.52840000
H      -46.28040000     -33.35360000     -74.26530000
H      -42.36080000     -31.69010000     -75.13290000
H      -43.19550000     -29.43340000     -74.47130000
C      -43.90760000     -34.05270000     -75.30240000
H      -42.87300000     -33.96960000     -75.71440000
H      -44.64730000     -34.30090000     -76.09930000
C      -47.42320000     -30.99730000     -73.59160000
H      -47.47870000     -29.87590000     -73.35480000
H      -47.92090000     -31.17630000     -74.62770000
S      -43.90430000     -35.40330000     -74.00020000
S      -48.27820000     -32.23480000     -72.49230000
C      -43.34580000     -34.74980000     -72.31190000
H      -42.41570000     -35.24290000     -72.14870000
H      -43.26260000     -33.63470000     -72.42260000
C      -47.24730000     -32.32590000     -70.96930000
H      -47.48610000     -31.49660000     -70.31540000
H      -46.18160000     -32.27300000     -71.16410000
C      -47.58930000     -33.72420000     -70.47910000
H      -48.58020000     -33.68910000     -70.17500000
H      -47.44520000     -34.54380000     -71.19770000
C      -44.51530000     -35.09890000     -71.37640000
H      -44.77090000     -36.11610000     -71.44850000
H      -45.50790000     -34.62960000     -71.78030000
C      -44.32650000     -34.76870000     -69.96670000
C      -43.10320000     -34.78940000     -69.30380000
C      -45.45580000     -34.32120000     -69.10600000
H      -42.10760000     -35.05970000     -69.80410000
C      -44.98370000     -34.20910000     -67.82120000
C      -46.82420000     -33.93440000     -69.22030000
C      -47.36290000     -33.63330000     -68.01640000
S      -43.30860000     -34.50460000     -67.54200000
S      -46.20840000     -33.77110000     -66.69710000
H      -48.38500000     -33.37080000     -67.93260000
