40
Properties=species:S:1:pos:R:3 #=T CELL(abcABC):=T 1.889726e+02=T 90.00000=T Traj:=T positionsangstrom=T Step:=T 0=T Bead:=T pbc="F F F"
C      -45.10270000     -30.11050000     -74.22200000
C      -45.89100000     -31.21280000     -73.85840000
C      -45.32490000     -32.48180000     -74.03450000
C      -44.05280000     -32.62690000     -74.55560000
C      -43.30310000     -31.47840000     -74.91110000
C      -43.72430000     -30.26270000     -74.45340000
H      -45.47540000     -29.04370000     -74.06710000
H      -45.82630000     -33.40200000     -73.73310000
H      -42.34830000     -31.61530000     -75.39980000
H      -43.13870000     -29.38820000     -74.65540000
C      -43.54820000     -33.97790000     -75.04490000
H      -42.47260000     -34.00810000     -75.22230000
H      -44.00800000     -34.12330000     -76.06590000
C      -47.35880000     -31.03270000     -73.45100000
H      -47.41260000     -30.11500000     -72.82290000
H      -47.81810000     -30.63210000     -74.28610000
S      -44.27600000     -35.39740000     -74.08250000
S      -48.16080000     -32.51870000     -72.73100000
C      -43.55660000     -35.00140000     -72.44380000
H      -42.72540000     -35.65930000     -72.14350000
H      -43.09460000     -34.00050000     -72.52930000
C      -47.33980000     -32.70520000     -71.10740000
H      -47.55770000     -31.80830000     -70.59640000
H      -46.24810000     -32.70190000     -71.25720000
C      -47.75930000     -33.86420000     -70.27910000
H      -48.88040000     -33.82420000     -69.99540000
H      -47.72660000     -34.81040000     -70.81010000
C      -44.70590000     -35.05790000     -71.40820000
H      -44.85090000     -36.08730000     -71.21810000
H      -45.70550000     -34.53750000     -71.75320000
C      -44.41940000     -34.50470000     -70.04720000
C      -43.19770000     -34.62210000     -69.37320000
C      -45.47470000     -34.12520000     -69.03680000
H      -42.27330000     -34.98840000     -69.83990000
C      -44.93070000     -34.13230000     -67.69820000
C      -46.87290000     -33.86000000     -69.03880000
C      -47.38780000     -33.63430000     -67.80520000
S      -43.20110000     -34.43310000     -67.64950000
S      -46.16690000     -33.69870000     -66.57110000
H      -48.43980000     -33.54490000     -67.52650000
