40
Properties=species:S:1:pos:R:3 #=T CELL(abcABC):=T 1.889726e+02=T 90.00000=T Traj:=T positionsangstrom=T Step:=T 0=T Bead:=T pbc="F F F"
C      -43.36180000     -36.55960000     -71.05620000
C      -42.62820000     -35.55970000     -70.47580000
C      -42.16600000     -34.50640000     -71.25240000
C      -42.29970000     -34.50640000     -72.66920000
C      -43.01820000     -35.57500000     -73.23190000
C      -43.72320000     -36.48930000     -72.39530000
H      -43.61410000     -37.37380000     -70.47280000
H      -41.75070000     -33.64620000     -70.76690000
H      -43.11020000     -35.55040000     -74.28510000
H      -44.32800000     -37.29650000     -72.82260000
C      -41.83220000     -33.33230000     -73.51620000
H      -42.18620000     -33.49770000     -74.60150000
H      -40.76780000     -33.14740000     -73.56940000
C      -42.64390000     -35.56400000     -68.97650000
H      -43.07950000     -36.53380000     -68.71270000
H      -41.68330000     -35.28740000     -68.58200000
S      -42.41140000     -31.72270000     -72.87580000
S      -43.74850000     -34.39070000     -68.08890000
C      -44.20840000     -32.21380000     -72.79770000
H      -44.55580000     -32.47730000     -73.79650000
H      -44.33650000     -33.09170000     -72.18920000
C      -45.18790000     -34.15530000     -69.22200000
H      -45.93850000     -34.98890000     -69.22610000
H      -44.67730000     -34.16820000     -70.19760000
C      -45.90310000     -32.82610000     -69.06300000
H      -46.24840000     -32.76320000     -68.01590000
H      -45.25500000     -31.96190000     -69.24180000
C      -45.13570000     -31.18180000     -72.23720000
H      -45.17920000     -30.22600000     -72.74820000
H      -44.90860000     -30.98830000     -71.21250000
C      -46.57500000     -31.65300000     -72.27830000
C      -47.26240000     -31.62260000     -73.51900000
C      -47.34760000     -32.25360000     -71.22200000
H      -46.98440000     -31.21630000     -74.52470000
C      -48.64310000     -32.49330000     -71.64210000
C      -47.19460000     -32.67410000     -69.86940000
C      -48.39760000     -33.07700000     -69.30700000
S      -48.91880000     -32.13700000     -73.30090000
S      -49.72540000     -33.04900000     -70.42860000
H      -48.50720000     -33.48300000     -68.29950000
