40
Properties=species:S:1:pos:R:3 #=T CELL(abcABC):=T 1.889726e+02=T 90.00000=T Traj:=T positionsangstrom=T Step:=T 0=T Bead:=T pbc="F F F"
C      -45.07170000     -30.23540000     -73.75710000
C      -45.89330000     -31.39680000     -73.79490000
C      -45.31600000     -32.65030000     -74.08940000
C      -43.96760000     -32.71880000     -74.39520000
C      -43.20120000     -31.54240000     -74.40540000
C      -43.73510000     -30.27290000     -74.11240000
H      -45.43370000     -29.28220000     -73.36770000
H      -45.95020000     -33.49670000     -74.22430000
H      -42.17980000     -31.57590000     -74.71420000
H      -43.07850000     -29.41060000     -74.11100000
C      -43.25660000     -34.02940000     -74.71180000
H      -42.27920000     -33.95800000     -74.29090000
H      -43.10370000     -34.06460000     -75.81710000
C      -47.43280000     -31.25090000     -73.77110000
H      -47.58080000     -30.19160000     -73.64720000
H      -47.76320000     -31.36580000     -74.84760000
S      -44.07790000     -35.55140000     -74.24200000
S      -48.20990000     -32.51930000     -72.71550000
C      -43.79990000     -35.32820000     -72.39870000
H      -43.58420000     -36.38200000     -71.94360000
H      -42.76620000     -34.91820000     -72.30450000
C      -47.57900000     -32.25770000     -71.02760000
H      -48.10030000     -31.44350000     -70.60760000
H      -46.47580000     -31.92410000     -71.05200000
C      -47.82030000     -33.56680000     -70.23050000
H      -48.86560000     -33.64420000     -69.93800000
H      -47.80680000     -34.44870000     -70.90720000
C      -44.88120000     -34.66400000     -71.60210000
H      -45.87580000     -35.21530000     -71.63190000
H      -45.02280000     -33.63380000     -72.01970000
C      -44.57830000     -34.62710000     -70.11800000
C      -43.37730000     -34.92660000     -69.56430000
C      -45.48490000     -34.13410000     -69.07580000
H      -42.48460000     -35.32150000     -70.10690000
C      -44.88380000     -34.06130000     -67.83240000
C      -46.89530000     -33.63290000     -69.06180000
C      -47.25200000     -33.25300000     -67.83020000
S      -43.30760000     -34.68430000     -67.82320000
S      -46.01180000     -33.37820000     -66.64900000
H      -48.27180000     -32.99840000     -67.60270000
