40
Properties=species:S:1:pos:R:3 #=T CELL(abcABC):=T 1.889726e+02=T 90.00000=T Traj:=T positionsangstrom=T Step:=T 0=T Bead:=T pbc="F F F"
C      -44.58190000     -36.97950000     -70.25230000
C      -45.65990000     -36.88110000     -71.12280000
C      -45.44800000     -36.36740000     -72.44480000
C      -44.14730000     -35.88740000     -72.79040000
C      -43.14230000     -36.01080000     -71.83250000
C      -43.33810000     -36.49750000     -70.60110000
H      -44.79040000     -37.29150000     -69.27580000
H      -46.32210000     -36.22320000     -73.04170000
H      -42.16900000     -35.55310000     -72.10870000
H      -42.63230000     -36.43060000     -69.81400000
C      -43.78940000     -35.33690000     -74.21220000
H      -44.62080000     -35.41200000     -74.94660000
H      -42.94200000     -35.93010000     -74.63710000
C      -47.00830000     -37.36860000     -70.63400000
H      -47.63180000     -37.81420000     -71.40200000
H      -47.00680000     -38.14390000     -69.87130000
S      -43.28280000     -33.53220000     -74.12610000
S      -47.96820000     -36.00890000     -69.78980000
C      -44.82220000     -32.57460000     -74.48690000
H      -44.50730000     -31.57360000     -74.88560000
H      -45.39480000     -33.20640000     -75.30010000
C      -46.82200000     -34.67120000     -69.15600000
H      -45.87690000     -35.09900000     -68.75840000
H      -47.46470000     -34.18630000     -68.40910000
C      -46.44260000     -33.75820000     -70.30480000
H      -45.71640000     -34.17120000     -71.03110000
H      -47.34840000     -33.42580000     -70.79060000
C      -45.81960000     -32.43170000     -73.32890000
H      -45.88660000     -33.30680000     -72.66920000
H      -46.84670000     -32.25210000     -73.80010000
C      -45.53170000     -31.28710000     -72.38090000
C      -45.50120000     -29.99570000     -72.79640000
C      -45.54320000     -31.39540000     -70.89470000
H      -45.41270000     -29.69240000     -73.84750000
C      -45.26020000     -30.14880000     -70.27880000
C      -45.83300000     -32.42200000     -69.88020000
C      -45.71830000     -31.94840000     -68.57350000
S      -45.07320000     -28.89200000     -71.51160000
S      -45.22970000     -30.27110000     -68.52170000
H      -45.94970000     -32.40250000     -67.59380000
