40
Properties=species:S:1:pos:R:3 #=T CELL(abcABC):=T 1.889726e+02=T 90.00000=T Traj:=T positionsangstrom=T Step:=T 0=T Bead:=T pbc="F F F"
C      -48.10770000     -34.79870000     -68.62760000
C      -47.27190000     -33.65310000     -68.64400000
C      -47.56360000     -32.60390000     -69.50080000
C      -48.64560000     -32.67340000     -70.35740000
C      -49.46800000     -33.82930000     -70.33180000
C      -49.25430000     -34.91190000     -69.48660000
H      -47.83190000     -35.57000000     -67.92230000
H      -46.85710000     -31.73940000     -69.53190000
H      -50.20480000     -33.87220000     -71.03090000
H      -50.05390000     -35.61200000     -69.39660000
C      -48.86800000     -31.60080000     -71.39920000
H      -48.15310000     -30.68370000     -71.25910000
H      -49.92550000     -31.32530000     -71.27130000
C      -46.14440000     -33.51320000     -67.58720000
H      -45.66040000     -32.55200000     -67.70010000
H      -46.57940000     -33.69480000     -66.55510000
S      -48.72170000     -32.26160000     -73.13450000
S      -44.83140000     -34.78090000     -67.56180000
C      -46.89000000     -31.87970000     -73.48090000
H      -46.78580000     -31.94120000     -74.58660000
H      -46.84630000     -30.88510000     -73.04190000
C      -43.83320000     -34.38040000     -69.08590000
H      -42.85640000     -34.74610000     -68.73490000
H      -43.72240000     -33.20290000     -69.09400000
C      -44.37910000     -34.74380000     -70.50510000
H      -44.71140000     -35.79320000     -70.65880000
H      -45.26310000     -34.12440000     -70.58450000
C      -45.93850000     -32.88870000     -72.73450000
H      -46.09390000     -33.95920000     -73.05600000
H      -46.10070000     -32.86160000     -71.65790000
C      -44.47040000     -32.65930000     -73.02680000
C      -44.11500000     -31.82000000     -74.04790000
C      -43.39000000     -33.47040000     -72.54500000
H      -44.73280000     -31.13880000     -74.64200000
C      -42.25330000     -33.22140000     -73.22540000
C      -43.18870000     -34.39920000     -71.43160000
C      -41.88830000     -34.87710000     -71.36720000
S      -42.35750000     -32.03730000     -74.46350000
S      -40.94580000     -34.10080000     -72.65770000
H      -41.40480000     -35.61690000     -70.70900000
