40
Properties=species:S:1:pos:R:3 #=T CELL(abcABC):=T 1.889726e+02=T 90.00000=T Traj:=T positionsangstrom=T Step:=T 0=T Bead:=T pbc="F F F"
C      -45.84990000     -37.54770000     -70.18360000
C      -45.28800000     -36.58170000     -71.00120000
C      -44.80980000     -35.36590000     -70.54470000
C      -44.93290000     -35.02970000     -69.19620000
C      -45.47810000     -36.05910000     -68.33180000
C      -45.97700000     -37.26040000     -68.82730000
H      -46.02540000     -38.51920000     -70.63380000
H      -44.44140000     -34.57140000     -71.22300000
H      -45.64740000     -35.75300000     -67.29550000
H      -46.29080000     -37.97770000     -68.04550000
C      -44.56580000     -33.64130000     -68.75190000
H      -43.93480000     -33.14780000     -69.53060000
H      -43.91680000     -33.57650000     -67.87560000
C      -45.23820000     -37.01620000     -72.47670000
H      -44.58590000     -37.79750000     -72.70040000
H      -46.19050000     -37.31300000     -72.90080000
S      -45.97480000     -32.61880000     -68.28110000
S      -44.73400000     -35.69990000     -73.69030000
C      -47.31270000     -32.95160000     -69.64620000
H      -46.95750000     -33.67960000     -70.40740000
H      -48.16990000     -33.42050000     -69.16590000
C      -46.32960000     -34.86280000     -74.26940000
H      -47.17280000     -35.63160000     -74.13080000
H      -46.26860000     -34.49030000     -75.26880000
C      -46.78340000     -33.64550000     -73.44260000
H      -47.67060000     -33.20800000     -73.93850000
H      -47.18490000     -33.95110000     -72.48750000
C      -47.57380000     -31.66240000     -70.42970000
H      -48.16810000     -30.93090000     -69.90760000
H      -48.22770000     -32.01740000     -71.34400000
C      -46.30720000     -31.06370000     -70.98570000
C      -45.69310000     -29.98300000     -70.41400000
C      -45.58580000     -31.55620000     -72.11700000
H      -46.04430000     -29.46790000     -69.49100000
C      -44.35390000     -30.88170000     -72.23490000
C      -45.67570000     -32.66760000     -73.19270000
C      -44.54640000     -32.62620000     -73.96650000
S      -44.17000000     -29.58180000     -71.07890000
S      -43.32270000     -31.49050000     -73.48100000
H      -44.23120000     -33.39610000     -74.70240000
