40
Properties=species:S:1:pos:R:3 #=T CELL(abcABC):=T 1.889726e+02=T 90.00000=T Traj:=T positionsangstrom=T Step:=T 0=T Bead:=T pbc="F F F"
C      -45.79730000     -37.58770000     -70.16210000
C      -45.25980000     -36.68500000     -71.06940000
C      -44.93130000     -35.38900000     -70.73680000
C      -44.98780000     -34.93800000     -69.42210000
C      -45.54090000     -35.82580000     -68.45310000
C      -45.96620000     -37.11090000     -68.85820000
H      -46.20060000     -38.53870000     -70.40750000
H      -44.54320000     -34.76260000     -71.49820000
H      -45.55640000     -35.55750000     -67.37230000
H      -46.39840000     -37.68610000     -68.06350000
C      -44.60510000     -33.54910000     -68.92400000
H      -44.25810000     -33.02740000     -69.79120000
H      -43.92030000     -33.54080000     -68.08010000
C      -45.18910000     -37.11080000     -72.58840000
H      -44.27370000     -37.78210000     -72.74620000
H      -46.11440000     -37.75890000     -72.74000000
S      -46.20800000     -32.66480000     -68.28140000
S      -44.91990000     -35.74490000     -73.86020000
C      -47.29360000     -32.95560000     -69.76840000
H      -46.88910000     -33.77200000     -70.34830000
H      -48.21510000     -33.24890000     -69.28780000
C      -46.58680000     -34.85270000     -73.90100000
H      -47.26180000     -35.69070000     -73.73320000
H      -46.63790000     -34.63510000     -74.92950000
C      -46.69190000     -33.65600000     -73.01450000
H      -47.60380000     -33.10920000     -73.29930000
H      -46.81860000     -34.09200000     -71.93420000
C      -47.55310000     -31.63660000     -70.59190000
H      -48.07220000     -30.91540000     -69.93570000
H      -48.27340000     -31.80530000     -71.35380000
C      -46.26140000     -31.01490000     -71.03250000
C      -45.77990000     -29.81180000     -70.49260000
C      -45.41490000     -31.56480000     -72.05490000
H      -46.07550000     -29.36640000     -69.52350000
C      -44.20780000     -30.87610000     -72.16740000
C      -45.49560000     -32.68850000     -72.98630000
C      -44.32820000     -32.73620000     -73.79850000
S      -44.10270000     -29.53240000     -71.09750000
S      -43.12810000     -31.61040000     -73.33340000
H      -43.90780000     -33.34610000     -74.57440000
