40
Properties=species:S:1:pos:R:3 #=T CELL(abcABC):=T 1.889726e+02=T 90.00000=T Traj:=T positionsangstrom=T Step:=T 0=T Bead:=T pbc="F F F"
C      -46.11600000     -37.48000000     -70.04310000
C      -45.48420000     -36.64140000     -70.98310000
C      -44.83480000     -35.43250000     -70.50800000
C      -44.92520000     -35.10500000     -69.18930000
C      -45.57410000     -36.00460000     -68.26810000
C      -46.10780000     -37.18500000     -68.65780000
H      -46.29950000     -38.52390000     -70.24380000
H      -44.29340000     -34.90530000     -71.28210000
H      -45.53900000     -35.58560000     -67.28340000
H      -46.55730000     -37.83650000     -67.89000000
C      -44.44670000     -33.78200000     -68.58330000
H      -43.80320000     -33.16530000     -69.15550000
H      -43.95030000     -34.01950000     -67.62450000
C      -45.37690000     -37.02330000     -72.43380000
H      -44.64670000     -37.85970000     -72.54640000
H      -46.31110000     -37.45060000     -72.76810000
S      -45.93740000     -32.73510000     -68.22880000
S      -44.70270000     -35.73340000     -73.65650000
C      -47.23910000     -33.20800000     -69.45750000
H      -46.88210000     -34.15110000     -69.84950000
H      -48.17480000     -33.28850000     -68.85410000
C      -46.20140000     -34.87610000     -74.19470000
H      -47.01010000     -35.60540000     -74.22750000
H      -46.07040000     -34.70230000     -75.30670000
C      -46.54520000     -33.64030000     -73.33440000
H      -47.52780000     -33.18420000     -73.64100000
H      -46.65850000     -34.07960000     -72.33650000
C      -47.41260000     -32.03300000     -70.54770000
H      -48.19590000     -31.30380000     -70.08800000
H      -47.92750000     -32.42880000     -71.39920000
C      -46.11160000     -31.35880000     -70.98700000
C      -45.62530000     -30.31820000     -70.25700000
C      -45.32730000     -31.64490000     -72.13400000
H      -45.96810000     -29.90090000     -69.30150000
C      -44.38350000     -30.66210000     -72.38690000
C      -45.48550000     -32.54460000     -73.29220000
C      -44.48980000     -32.37650000     -74.18880000
S      -44.28430000     -29.55210000     -71.02170000
S      -43.53050000     -30.96590000     -73.90160000
H      -44.56850000     -32.83970000     -75.16310000
