40
Properties=species:S:1:pos:R:3 #=T CELL(abcABC):=T 1.889726e+02=T 90.00000=T Traj:=T positionsangstrom=T Step:=T 0=T Bead:=T pbc="F F F"
C      -48.92390000     -32.49480000     -69.53470000
C      -47.59690000     -32.35310000     -68.95710000
C      -46.80150000     -31.32270000     -69.49740000
C      -47.29650000     -30.55420000     -70.63810000
C      -48.47380000     -30.90190000     -71.29240000
C      -49.34150000     -31.91090000     -70.72730000
H      -49.59350000     -33.12200000     -68.94890000
H      -45.87110000     -31.13410000     -68.92020000
H      -48.76980000     -30.37750000     -72.11960000
H      -50.31690000     -31.98860000     -71.06770000
C      -46.43480000     -29.47330000     -71.16910000
H      -45.86890000     -29.10390000     -70.29810000
H      -47.13000000     -28.74530000     -71.62520000
C      -47.16020000     -33.28480000     -67.86480000
H      -46.09370000     -33.01760000     -67.69470000
H      -47.79070000     -33.23890000     -66.93740000
S      -45.30110000     -29.82040000     -72.58200000
S      -47.36330000     -35.04720000     -68.35690000
C      -45.00640000     -31.63640000     -72.63270000
H      -45.93550000     -32.20600000     -72.54520000
H      -44.71960000     -31.90960000     -73.68380000
C      -45.99970000     -35.23870000     -69.60250000
H      -45.62110000     -36.23590000     -69.54950000
H      -45.18680000     -34.67420000     -69.17240000
C      -46.16200000     -34.89440000     -71.06990000
H      -47.01340000     -35.38790000     -71.49470000
H      -46.21590000     -33.80800000     -71.12660000
C      -44.00780000     -32.06680000     -71.58980000
H      -44.50440000     -32.35720000     -70.69200000
H      -43.16770000     -31.32450000     -71.43380000
C      -43.27670000     -33.19810000     -72.19790000
C      -42.01490000     -33.02870000     -72.73380000
C      -43.72190000     -34.53220000     -72.22240000
H      -41.42750000     -32.11270000     -72.90890000
C      -42.81120000     -35.40700000     -72.89500000
C      -44.87740000     -35.36210000     -71.78860000
C      -44.77760000     -36.69400000     -72.06450000
S      -41.34410000     -34.46860000     -73.40680000
S      -43.31240000     -37.03130000     -73.04640000
H      -45.51680000     -37.39540000     -71.72180000
