40
Properties=species:S:1:pos:R:3 #=T CELL(abcABC):=T 1.889726e+02=T 90.00000=T Traj:=T positionsangstrom=T Step:=T 0=T Bead:=T pbc="F F F"
C      -45.91130000     -37.58840000     -70.25080000
C      -45.45930000     -36.67700000     -71.18150000
C      -44.97160000     -35.42350000     -70.79110000
C      -45.20040000     -34.93960000     -69.49370000
C      -45.77220000     -35.84340000     -68.54540000
C      -46.06870000     -37.14250000     -68.95310000
H      -46.13790000     -38.68200000     -70.45970000
H      -44.54530000     -34.78670000     -71.56140000
H      -45.98480000     -35.53650000     -67.51690000
H      -46.29980000     -37.89600000     -68.17850000
C      -44.92340000     -33.45460000     -69.20070000
H      -44.82790000     -32.90450000     -70.10610000
H      -43.92250000     -33.31670000     -68.79080000
C      -45.47090000     -37.19510000     -72.66240000
H      -44.68560000     -38.00480000     -72.69000000
H      -46.49800000     -37.69850000     -72.92990000
S      -46.24990000     -32.70660000     -68.23850000
S      -45.02950000     -35.99610000     -73.99900000
C      -47.53290000     -32.71900000     -69.57660000
H      -47.49150000     -33.68580000     -70.05800000
H      -48.43940000     -32.69510000     -69.02740000
C      -46.36190000     -34.72700000     -74.15170000
H      -47.29200000     -35.19510000     -74.30890000
H      -46.07250000     -34.18690000     -75.05880000
C      -46.50910000     -33.67910000     -72.97280000
H      -47.48980000     -33.19260000     -73.30390000
H      -46.70720000     -34.20370000     -72.08860000
C      -47.43370000     -31.47190000     -70.54170000
H      -47.92550000     -30.71980000     -70.03170000
H      -48.03180000     -31.77620000     -71.43690000
C      -46.18410000     -30.88990000     -71.00000000
C      -45.61050000     -29.82860000     -70.41880000
C      -45.24960000     -31.52700000     -71.99220000
H      -45.99950000     -29.13590000     -69.72770000
C      -44.02770000     -30.88170000     -72.02910000
C      -45.29830000     -32.66340000     -72.81450000
C      -44.09600000     -32.91960000     -73.46920000
S      -43.99380000     -29.44630000     -71.07570000
S      -42.97520000     -31.59940000     -73.19650000
H      -43.90530000     -33.76880000     -74.06540000
