40
Properties=species:S:1:pos:R:3 #=T CELL(abcABC):=T 1.889726e+02=T 90.00000=T Traj:=T positionsangstrom=T Step:=T 0=T Bead:=T pbc="F F F"
C      -46.53200000     -37.60940000     -70.24030000
C      -45.89910000     -36.67050000     -71.18340000
C      -45.34450000     -35.48980000     -70.64650000
C      -45.34860000     -35.25090000     -69.21780000
C      -46.04150000     -36.13540000     -68.39060000
C      -46.59350000     -37.28310000     -68.91020000
H      -46.92710000     -38.47160000     -70.64610000
H      -44.86460000     -34.78720000     -71.34010000
H      -46.09010000     -35.88820000     -67.32470000
H      -47.04100000     -37.90990000     -68.20930000
C      -44.73290000     -33.93520000     -68.72430000
H      -43.98090000     -33.49480000     -69.43040000
H      -44.23470000     -34.08550000     -67.77340000
C      -45.55480000     -37.08090000     -72.56830000
H      -44.82910000     -37.97690000     -72.62680000
H      -46.50740000     -37.57700000     -72.98920000
S      -46.02500000     -32.58010000     -68.31710000
S      -44.96730000     -35.80640000     -73.90230000
C      -47.29830000     -32.69670000     -69.64460000
H      -47.03070000     -33.60600000     -70.12080000
H      -48.34600000     -32.88200000     -69.26620000
C      -46.39640000     -34.62950000     -74.24220000
H      -47.26940000     -35.25940000     -74.39980000
H      -46.14490000     -34.17220000     -75.18830000
C      -46.51860000     -33.44830000     -73.26040000
H      -47.13990000     -32.71250000     -73.78450000
H      -47.14660000     -33.70510000     -72.34610000
C      -47.28340000     -31.50740000     -70.66410000
H      -47.96460000     -30.77490000     -70.14420000
H      -47.78110000     -31.88430000     -71.53880000
C      -45.95370000     -30.96860000     -70.98700000
C      -45.41800000     -29.89180000     -70.41520000
C      -45.19290000     -31.46680000     -72.04060000
H      -45.85040000     -29.38890000     -69.56090000
C      -43.99230000     -30.79620000     -72.19980000
C      -45.25870000     -32.67150000     -72.99160000
C      -44.10040000     -32.76700000     -73.72400000
S      -43.82450000     -29.53630000     -71.02810000
S      -42.88920000     -31.52880000     -73.26510000
H      -43.94270000     -33.57870000     -74.48810000
