40
Properties=species:S:1:pos:R:3 #=T CELL(abcABC):=T 1.889726e+02=T 90.00000=T Traj:=T positionsangstrom=T Step:=T 0=T Bead:=T pbc="F F F"
C      -46.25270000     -37.62520000     -70.29260000
C      -45.73100000     -36.71970000     -71.26320000
C      -45.14060000     -35.50970000     -70.79390000
C      -45.18430000     -35.07500000     -69.44660000
C      -45.87300000     -36.00030000     -68.52700000
C      -46.24310000     -37.23080000     -68.94430000
H      -46.67230000     -38.54210000     -70.70330000
H      -44.51240000     -34.90070000     -71.51210000
H      -45.96840000     -35.72750000     -67.46740000
H      -46.72030000     -37.91540000     -68.20010000
C      -44.71560000     -33.78540000     -68.89110000
H      -44.08010000     -33.14350000     -69.51380000
H      -44.19120000     -33.96930000     -67.91760000
C      -45.64710000     -37.07070000     -72.71970000
H      -44.91300000     -37.84710000     -72.73600000
H      -46.53130000     -37.44080000     -73.11160000
S      -46.14840000     -32.63770000     -68.34300000
S      -44.87160000     -35.82040000     -73.78060000
C      -47.41860000     -32.65400000     -69.71880000
H      -47.28670000     -33.54200000     -70.36450000
H      -48.39860000     -32.66470000     -69.25830000
C      -46.39070000     -34.70470000     -74.06750000
H      -47.18650000     -35.48130000     -73.88620000
H      -46.51510000     -34.38210000     -75.10600000
C      -46.60000000     -33.52310000     -73.11660000
H      -47.44670000     -32.90760000     -73.37120000
H      -46.80340000     -33.91120000     -72.08970000
C      -47.42350000     -31.34950000     -70.48850000
H      -47.78380000     -30.51470000     -69.90640000
H      -48.18470000     -31.26330000     -71.32080000
C      -46.09570000     -30.95550000     -70.98100000
C      -45.53330000     -29.86650000     -70.47700000
C      -45.24930000     -31.56840000     -72.00730000
H      -45.99330000     -29.16170000     -69.73840000
C      -44.00040000     -30.97240000     -72.03210000
C      -45.32180000     -32.64950000     -72.93310000
C      -44.15540000     -32.76040000     -73.69870000
S      -43.93380000     -29.49660000     -71.08490000
S      -42.93690000     -31.63870000     -73.19820000
H      -43.78580000     -33.64130000     -74.19860000
