40
Properties=species:S:1:pos:R:3 #=T CELL(abcABC):=T 1.889726e+02=T 90.00000=T Traj:=T positionsangstrom=T Step:=T 0=T Bead:=T pbc="F F F"
C      -46.89260000     -37.26730000     -70.56570000
C      -45.69560000     -36.53440000     -70.81210000
C      -45.31050000     -35.58850000     -69.82720000
C      -46.04230000     -35.39650000     -68.59960000
C      -47.09030000     -36.27940000     -68.35430000
C      -47.62340000     -37.09080000     -69.38150000
H      -47.27000000     -37.87390000     -71.36690000
H      -44.54230000     -34.88690000     -70.02850000
H      -47.65320000     -36.17760000     -67.47290000
H      -48.56100000     -37.60660000     -69.20760000
C      -45.66800000     -34.31850000     -67.71560000
H      -44.57880000     -34.20950000     -67.66080000
H      -45.88870000     -34.64410000     -66.72370000
C      -44.82270000     -36.79350000     -71.99670000
H      -43.82940000     -37.17800000     -71.82700000
H      -45.29320000     -37.56200000     -72.60140000
S      -46.49190000     -32.66340000     -68.12190000
S      -44.50720000     -35.31790000     -73.09600000
C      -47.04330000     -32.78660000     -69.90030000
H      -46.48290000     -33.56590000     -70.38110000
H      -48.05790000     -33.13000000     -69.89910000
C      -46.20000000     -34.79830000     -73.79940000
H      -46.87310000     -35.43060000     -73.28310000
H      -46.27330000     -35.09660000     -74.92230000
C      -46.57750000     -33.35880000     -73.53920000
H      -47.31420000     -32.95750000     -74.26650000
H      -47.15790000     -33.27260000     -72.57540000
C      -46.95650000     -31.49340000     -70.69070000
H      -47.39330000     -30.74390000     -70.08450000
H      -47.67560000     -31.64500000     -71.52890000
C      -45.64620000     -31.03140000     -71.21050000
C      -44.77010000     -30.22980000     -70.49790000
C      -44.97480000     -31.54270000     -72.41980000
H      -45.05860000     -29.65810000     -69.60330000
C      -43.72990000     -30.96870000     -72.65530000
C      -45.34250000     -32.42390000     -73.47800000
C      -44.34000000     -32.54390000     -74.44890000
S      -43.23840000     -29.90440000     -71.35570000
S      -42.95540000     -31.48990000     -74.07510000
H      -44.41740000     -33.17740000     -75.29880000
