40
Properties=species:S:1:pos:R:3 #=T CELL(abcABC):=T 1.889726e+02=T 90.00000=T Traj:=T positionsangstrom=T Step:=T 0=T Bead:=T pbc="F F F"
C      -43.14660000     -36.91930000     -70.59250000
C      -42.95550000     -35.64240000     -70.08000000
C      -42.33990000     -34.71290000     -70.85340000
C      -42.20220000     -34.79420000     -72.22890000
C      -42.36700000     -36.09340000     -72.78120000
C      -42.74240000     -37.09910000     -71.91660000
H      -43.59710000     -37.74850000     -70.03580000
H      -42.04810000     -33.73760000     -70.45460000
H      -42.11960000     -36.27680000     -73.80480000
H      -42.88360000     -38.03840000     -72.43260000
C      -41.58210000     -33.64480000     -72.96270000
H      -41.48630000     -33.81100000     -74.10690000
H      -40.62520000     -33.45200000     -72.60230000
C      -43.33600000     -35.37870000     -68.57520000
H      -44.24750000     -35.88350000     -68.38740000
H      -42.39330000     -35.65140000     -67.96750000
S      -42.69240000     -32.15920000     -72.67320000
S      -43.64400000     -33.60150000     -68.17950000
C      -44.32890000     -32.73890000     -73.02510000
H      -44.58400000     -33.07670000     -74.01340000
H      -44.70740000     -33.51870000     -72.38520000
C      -45.19900000     -33.52170000     -69.14920000
H      -45.99960000     -33.98260000     -68.55650000
H      -45.11670000     -34.07110000     -70.08710000
C      -45.75160000     -32.13990000     -69.45690000
H      -45.85450000     -31.46990000     -68.53280000
H      -45.12260000     -31.57430000     -70.13960000
C      -45.19860000     -31.44670000     -72.63880000
H      -44.91020000     -30.69470000     -73.35690000
H      -44.78030000     -31.08930000     -71.70490000
C      -46.65410000     -31.75100000     -72.71420000
C      -47.44670000     -31.59190000     -73.83350000
C      -47.41900000     -32.14930000     -71.55280000
H      -46.99350000     -31.20200000     -74.71360000
C      -48.75870000     -32.42240000     -71.94000000
C      -47.11060000     -32.32010000     -70.15080000
C      -48.18010000     -32.87200000     -69.50360000
S      -49.16910000     -32.06500000     -73.59600000
S      -49.64620000     -33.07560000     -70.58310000
H      -48.23130000     -33.22460000     -68.48410000
