40
Properties=species:S:1:pos:R:3 #=T CELL(abcABC):=T 1.889726e+02=T 90.00000=T Traj:=T positionsangstrom=T Step:=T 0=T Bead:=T pbc="F F F"
C      -46.89880000     -37.22700000     -70.76410000
C      -45.61210000     -36.65680000     -70.73250000
C      -45.37990000     -35.63570000     -69.77980000
C      -46.34910000     -35.33280000     -68.78320000
C      -47.53410000     -36.07840000     -68.74310000
C      -47.76420000     -37.05380000     -69.72700000
H      -47.24450000     -37.79620000     -71.63280000
H      -44.48010000     -35.04150000     -69.93780000
H      -48.25160000     -35.95770000     -67.91170000
H      -48.74850000     -37.58380000     -69.74980000
C      -46.01000000     -34.45720000     -67.62930000
H      -44.96680000     -34.52860000     -67.39400000
H      -46.60880000     -34.60080000     -66.71750000
C      -44.60710000     -36.79770000     -71.86620000
H      -43.59480000     -36.96220000     -71.44990000
H      -44.80330000     -37.72670000     -72.41820000
S      -46.29380000     -32.63000000     -68.17600000
S      -44.45480000     -35.34460000     -72.96230000
C      -46.90640000     -32.72520000     -69.91450000
H      -46.22350000     -33.38510000     -70.48380000
H      -47.88630000     -33.17190000     -69.91770000
C      -46.27140000     -34.93140000     -73.23550000
H      -46.97080000     -35.48830000     -72.54870000
H      -46.53510000     -35.41590000     -74.15930000
C      -46.62050000     -33.44770000     -73.31510000
H      -47.22160000     -33.23670000     -74.22330000
H      -47.28110000     -33.18460000     -72.47800000
C      -46.79010000     -31.33700000     -70.53180000
H      -46.98950000     -30.56690000     -69.80580000
H      -47.51900000     -31.23160000     -71.26670000
C      -45.39150000     -31.04670000     -71.13170000
C      -44.64100000     -30.04310000     -70.60850000
C      -44.92300000     -31.56010000     -72.32460000
H      -44.90270000     -29.46620000     -69.73870000
C      -43.68610000     -30.98730000     -72.67370000
C      -45.36310000     -32.57690000     -73.31850000
C      -44.53590000     -32.56820000     -74.38200000
S      -43.09640000     -29.80750000     -71.49590000
S      -43.12340000     -31.59290000     -74.22810000
H      -44.58690000     -33.29310000     -75.24980000
