40
Properties=species:S:1:pos:R:3 #=T CELL(abcABC):=T 1.889726e+02=T 90.00000=T Traj:=T positionsangstrom=T Step:=T 0=T Bead:=T pbc="F F F"
C      -47.40600000     -37.37200000     -70.40930000
C      -46.16370000     -36.77770000     -70.52530000
C      -45.64760000     -35.91270000     -69.56230000
C      -46.49400000     -35.44690000     -68.53690000
C      -47.78570000     -36.06010000     -68.37700000
C      -48.19780000     -37.06480000     -69.29690000
H      -47.71890000     -38.06220000     -71.20580000
H      -44.51340000     -35.74710000     -69.62960000
H      -48.42790000     -35.78950000     -67.55560000
H      -49.18830000     -37.58420000     -69.21950000
C      -46.06750000     -34.35860000     -67.65460000
H      -45.13800000     -34.46470000     -67.18430000
H      -46.78790000     -34.01970000     -66.95090000
C      -45.34540000     -36.92090000     -71.82480000
H      -44.55950000     -37.67590000     -71.64540000
H      -45.92190000     -37.29390000     -72.65150000
S      -45.67400000     -32.91680000     -68.77610000
S      -44.61270000     -35.33890000     -72.32280000
C      -46.95690000     -33.04560000     -70.10930000
H      -46.75030000     -33.90990000     -70.68990000
H      -47.96100000     -33.26750000     -69.66770000
C      -45.73270000     -34.84900000     -73.70010000
H      -46.72920000     -35.37450000     -73.58210000
H      -45.36430000     -35.20020000     -74.68670000
C      -46.16070000     -33.34170000     -73.75490000
H      -46.81610000     -33.12000000     -74.62650000
H      -46.78390000     -33.07270000     -72.94620000
C      -46.89360000     -31.76860000     -70.93870000
H      -47.39840000     -31.04180000     -70.33620000
H      -47.46740000     -31.90300000     -71.85590000
C      -45.46040000     -31.27370000     -71.26090000
C      -44.77940000     -30.34620000     -70.50040000
C      -44.79160000     -31.54770000     -72.50050000
H      -45.21000000     -29.91870000     -69.61530000
C      -43.63040000     -30.78690000     -72.64520000
C      -45.02680000     -32.33320000     -73.68120000
C      -44.06150000     -32.15890000     -74.63820000
S      -43.34840000     -29.74330000     -71.35860000
S      -42.77690000     -30.99480000     -74.15260000
H      -44.08210000     -32.56580000     -75.63190000
