40
Properties=species:S:1:pos:R:3 #=T CELL(abcABC):=T 1.889726e+02=T 90.00000=T Traj:=T positionsangstrom=T Step:=T 0=T Bead:=T pbc="F F F"
C      -44.70650000     -29.94090000     -72.02110000
C      -45.43590000     -30.51820000     -73.06250000
C      -44.78600000     -31.56270000     -73.76310000
C      -43.46330000     -31.84490000     -73.59660000
C      -42.70410000     -31.17670000     -72.64670000
C      -43.34210000     -30.24750000     -71.83720000
H      -45.16270000     -29.13530000     -71.41570000
H      -45.29020000     -32.14440000     -74.47940000
H      -41.62890000     -31.27350000     -72.61750000
H      -42.71380000     -29.66190000     -71.21350000
C      -42.81090000     -32.95560000     -74.36950000
H      -41.74000000     -33.10810000     -74.25230000
H      -43.11390000     -32.77170000     -75.45510000
C      -46.86050000     -30.10460000     -73.36660000
H      -47.00980000     -29.17650000     -72.78250000
H      -46.95550000     -29.82650000     -74.40760000
S      -43.66280000     -34.58700000     -74.20510000
S      -48.15710000     -31.40560000     -73.13860000
C      -43.63520000     -34.73390000     -72.31560000
H      -42.62870000     -34.99340000     -72.08630000
H      -43.80450000     -33.71180000     -71.97930000
C      -47.80510000     -32.14540000     -71.48240000
H      -48.83540000     -32.39040000     -71.01760000
H      -47.50250000     -31.38650000     -70.79380000
C      -46.91330000     -33.43840000     -71.47890000
H      -47.32440000     -34.26120000     -72.12550000
H      -46.01390000     -33.07910000     -72.06120000
C      -44.50530000     -35.88320000     -71.93120000
H      -44.01890000     -36.79900000     -72.31810000
H      -45.50770000     -35.91110000     -72.43130000
C      -44.87700000     -35.93290000     -70.42310000
C      -44.32080000     -36.82510000     -69.51790000
C      -45.68590000     -34.92860000     -69.72340000
H      -43.51640000     -37.56140000     -69.73800000
C      -45.56740000     -35.01610000     -68.25990000
C      -46.58960000     -33.87700000     -70.07380000
C      -47.14040000     -33.25850000     -68.97800000
S      -44.63840000     -36.45260000     -67.81750000
S      -46.56540000     -33.86250000     -67.45850000
H      -47.83560000     -32.41620000     -69.03020000
