40
Properties=species:S:1:pos:R:3 #=T CELL(abcABC):=T 1.889726e+02=T 90.00000=T Traj:=T positionsangstrom=T Step:=T 0=T Bead:=T pbc="F F F"
C      -47.25720000     -37.24660000     -70.72240000
C      -45.96000000     -36.53090000     -70.69060000
C      -45.66080000     -35.69630000     -69.63540000
C      -46.59260000     -35.49750000     -68.55160000
C      -47.77550000     -36.15510000     -68.63390000
C      -48.10640000     -36.95560000     -69.68600000
H      -47.59190000     -37.76310000     -71.61650000
H      -44.62920000     -35.27940000     -69.59400000
H      -48.42800000     -36.05750000     -67.73200000
H      -49.11160000     -37.28910000     -69.57330000
C      -46.33210000     -34.50980000     -67.46230000
H      -45.46710000     -34.72310000     -66.77100000
H      -47.15500000     -34.37210000     -66.81990000
C      -44.90020000     -36.77330000     -71.76300000
H      -44.02170000     -37.25210000     -71.25700000
H      -45.23700000     -37.52140000     -72.41960000
S      -45.92320000     -32.82890000     -68.26770000
S      -44.35760000     -35.22960000     -72.58690000
C      -46.89000000     -32.91670000     -69.83490000
H      -46.58440000     -33.76510000     -70.36640000
H      -47.99740000     -33.09080000     -69.67810000
C      -45.81990000     -34.94660000     -73.75760000
H      -46.51760000     -35.70170000     -73.56930000
H      -45.52100000     -35.13150000     -74.75790000
C      -46.29580000     -33.53150000     -73.56600000
H      -47.05730000     -33.36580000     -74.30220000
H      -46.91760000     -33.45370000     -72.66220000
C      -46.79950000     -31.62300000     -70.68860000
H      -47.23280000     -30.79760000     -70.14100000
H      -47.49970000     -31.87610000     -71.53220000
C      -45.43160000     -31.21220000     -71.22660000
C      -44.68010000     -30.26630000     -70.49770000
C      -44.81200000     -31.60940000     -72.50170000
H      -44.88160000     -29.72830000     -69.53900000
C      -43.62340000     -30.90950000     -72.72600000
C      -45.23710000     -32.43860000     -73.58890000
C      -44.27830000     -32.38310000     -74.59970000
S      -43.18910000     -29.79160000     -71.44320000
S      -43.02030000     -31.20780000     -74.28470000
H      -44.25290000     -32.75030000     -75.64880000
