40
Properties=species:S:1:pos:R:3 #=T CELL(abcABC):=T 1.889726e+02=T 90.00000=T Traj:=T positionsangstrom=T Step:=T 0=T Bead:=T pbc="F F F"
C      -43.51300000     -36.90760000     -70.59100000
C      -44.86770000     -36.90630000     -71.12640000
C      -45.13220000     -36.21210000     -72.32640000
C      -44.09100000     -35.59740000     -73.02530000
C      -42.76960000     -35.59730000     -72.45070000
C      -42.48560000     -36.25010000     -71.22210000
H      -43.54330000     -37.26700000     -69.52320000
H      -46.15700000     -36.20260000     -72.52190000
H      -41.99410000     -35.14650000     -73.13480000
H      -41.42090000     -36.09200000     -70.81480000
C      -44.30210000     -34.97190000     -74.40040000
H      -45.23370000     -35.30010000     -74.80410000
H      -43.57190000     -35.20020000     -75.07960000
C      -46.08370000     -37.36400000     -70.37210000
H      -46.46180000     -38.11010000     -71.08920000
H      -45.80900000     -37.77270000     -69.40680000
S      -44.16820000     -33.09980000     -74.39820000
S      -47.46570000     -36.18680000     -70.27890000
C      -45.92610000     -32.55300000     -74.40800000
H      -46.01920000     -31.48820000     -74.76830000
H      -46.45050000     -33.21440000     -75.10780000
C      -46.61160000     -34.72530000     -69.65720000
H      -45.65640000     -34.54920000     -70.21170000
H      -46.37560000     -34.74900000     -68.62150000
C      -47.47320000     -33.48360000     -69.89800000
H      -47.65040000     -33.53620000     -70.95290000
H      -48.42860000     -33.47850000     -69.35960000
C      -46.62770000     -32.41980000     -73.02230000
H      -46.67850000     -33.36000000     -72.49850000
H      -47.62970000     -31.91200000     -73.13990000
C      -45.88540000     -31.45290000     -72.03280000
C      -45.23470000     -30.37470000     -72.49800000
C      -45.96500000     -31.49770000     -70.57800000
H      -45.21640000     -30.03330000     -73.51210000
C      -45.13720000     -30.47880000     -70.02110000
C      -46.58840000     -32.27340000     -69.57240000
C      -46.31580000     -31.84380000     -68.29380000
S      -44.40330000     -29.42380000     -71.23860000
S      -45.20770000     -30.46880000     -68.21960000
H      -46.89840000     -32.13350000     -67.38150000
