40
Properties=species:S:1:pos:R:3 #=T CELL(abcABC):=T 1.889726e+02=T 90.00000=T Traj:=T positionsangstrom=T Step:=T 0=T Bead:=T pbc="F F F"
C      -45.01290000     -29.72950000     -72.10170000
C      -45.66150000     -30.35330000     -73.19450000
C      -45.03990000     -31.45150000     -73.84330000
C      -43.76620000     -31.84050000     -73.40550000
C      -43.19330000     -31.32200000     -72.29040000
C      -43.76690000     -30.21730000     -71.65460000
H      -45.47920000     -28.83860000     -71.69030000
H      -45.54870000     -31.97190000     -74.58660000
H      -42.15950000     -31.64320000     -71.97210000
H      -43.22860000     -29.68940000     -70.81000000
C      -42.99640000     -32.88040000     -74.20030000
H      -41.93950000     -32.75210000     -73.95340000
H      -43.04480000     -32.52550000     -75.27980000
C      -47.08540000     -30.07640000     -73.51100000
H      -47.42860000     -29.30050000     -72.86480000
H      -47.18410000     -29.84690000     -74.58550000
S      -43.61580000     -34.58790000     -74.04940000
S      -48.08840000     -31.63510000     -73.42860000
C      -43.38270000     -34.97610000     -72.24600000
H      -42.44980000     -35.39090000     -72.02070000
H      -43.43440000     -34.05250000     -71.73480000
C      -47.68150000     -32.23300000     -71.68960000
H      -48.66560000     -32.56650000     -71.26880000
H      -47.49830000     -31.39020000     -70.98820000
C      -46.62290000     -33.36660000     -71.51180000
H      -46.90810000     -34.14030000     -72.20390000
H      -45.67750000     -32.84130000     -71.96110000
C      -44.54450000     -35.94910000     -71.91440000
H      -44.31710000     -36.98690000     -72.23120000
H      -45.42620000     -35.66230000     -72.44690000
C      -44.84750000     -35.92870000     -70.40900000
C      -44.17170000     -36.72840000     -69.53450000
C      -45.66810000     -34.99130000     -69.68020000
H      -43.78380000     -37.65460000     -69.83350000
C      -45.55970000     -35.08710000     -68.31480000
C      -46.38870000     -33.75830000     -70.04010000
C      -46.90100000     -33.13580000     -68.93940000
S      -44.48270000     -36.35680000     -67.85530000
S      -46.37450000     -33.86670000     -67.45260000
H      -47.53980000     -32.29120000     -68.85360000
