40
Properties=species:S:1:pos:R:3 #=T CELL(abcABC):=T 1.889726e+02=T 90.00000=T Traj:=T positionsangstrom=T Step:=T 0=T Bead:=T pbc="F F F"
C      -43.68480000     -36.58820000     -70.51590000
C      -44.87210000     -36.71760000     -71.23030000
C      -44.99930000     -36.17270000     -72.48970000
C      -43.90930000     -35.50340000     -73.13160000
C      -42.71780000     -35.38330000     -72.41410000
C      -42.57370000     -35.94290000     -71.10980000
H      -43.54360000     -37.12890000     -69.61560000
H      -45.98260000     -36.29350000     -73.07170000
H      -41.87580000     -35.02440000     -73.04900000
H      -41.67040000     -35.98530000     -70.61920000
C      -44.17900000     -34.97090000     -74.48380000
H      -45.07920000     -35.26730000     -74.93190000
H      -43.40210000     -35.18090000     -75.18230000
C      -46.04630000     -37.43410000     -70.62720000
H      -46.56890000     -38.21340000     -71.24720000
H      -45.68890000     -37.80500000     -69.64940000
S      -44.13200000     -33.08080000     -74.32680000
S      -47.42030000     -36.29230000     -70.03720000
C      -45.94180000     -32.78830000     -74.25190000
H      -46.16090000     -31.93170000     -74.91930000
H      -46.53790000     -33.62290000     -74.64390000
C      -46.44870000     -34.80190000     -69.69170000
H      -45.75760000     -34.64920000     -70.49680000
H      -45.82130000     -34.89520000     -68.75850000
C      -47.41120000     -33.55860000     -69.77090000
H      -47.97800000     -33.63020000     -70.73940000
H      -48.19170000     -33.66730000     -69.02280000
C      -46.61700000     -32.65300000     -72.90040000
H      -46.67600000     -33.66170000     -72.38120000
H      -47.62870000     -32.15910000     -73.02090000
C      -45.85880000     -31.62350000     -72.03550000
C      -45.10030000     -30.62280000     -72.50340000
C      -45.92630000     -31.50850000     -70.62810000
H      -44.82730000     -30.53710000     -73.56770000
C      -45.30740000     -30.39830000     -70.10410000
C      -46.55130000     -32.30650000     -69.60410000
C      -46.26160000     -31.84620000     -68.36660000
S      -44.56170000     -29.43500000     -71.31120000
S      -45.39790000     -30.33030000     -68.31040000
H      -46.49810000     -32.24840000     -67.44310000
