40
Properties=species:S:1:pos:R:3 #=T CELL(abcABC):=T 1.889726e+02=T 90.00000=T Traj:=T positionsangstrom=T Step:=T 0=T Bead:=T pbc="F F F"
C      -43.60020000     -36.69950000     -70.51460000
C      -44.82290000     -36.85980000     -71.15690000
C      -45.04230000     -36.31230000     -72.43560000
C      -44.04630000     -35.57370000     -73.09650000
C      -42.74430000     -35.59780000     -72.49020000
C      -42.61270000     -36.02530000     -71.16800000
H      -43.57610000     -37.08600000     -69.46840000
H      -46.02560000     -36.36160000     -72.84640000
H      -42.06360000     -35.03040000     -73.11930000
H      -41.62410000     -35.86100000     -70.62410000
C      -44.13420000     -34.86690000     -74.43150000
H      -45.14100000     -35.24090000     -74.88110000
H      -43.31610000     -35.28460000     -75.11470000
C      -45.93820000     -37.52190000     -70.44430000
H      -46.42560000     -38.41890000     -70.81010000
H      -45.61340000     -37.89460000     -69.48390000
S      -44.13750000     -33.07490000     -74.29170000
S      -47.47070000     -36.32130000     -70.13200000
C      -45.96140000     -32.59040000     -74.36020000
H      -45.89730000     -31.61430000     -74.76420000
H      -46.44790000     -33.29030000     -75.05740000
C      -46.60960000     -34.76500000     -69.74580000
H      -45.73550000     -34.66120000     -70.39520000
H      -46.25950000     -34.86990000     -68.69590000
C      -47.56850000     -33.52740000     -69.83070000
H      -48.22210000     -33.44710000     -70.68970000
H      -48.25020000     -33.55700000     -68.97750000
C      -46.54770000     -32.54130000     -72.93100000
H      -46.54130000     -33.51730000     -72.48170000
H      -47.62740000     -32.43690000     -73.01420000
C      -45.89910000     -31.43280000     -72.09930000
C      -45.18120000     -30.35060000     -72.50900000
C      -45.99830000     -31.47210000     -70.66950000
H      -44.75290000     -30.38390000     -73.50640000
C      -45.24090000     -30.41740000     -70.09420000
C      -46.67160000     -32.26040000     -69.64310000
C      -46.41220000     -31.82850000     -68.37450000
S      -44.46470000     -29.39190000     -71.19380000
S      -45.19400000     -30.44060000     -68.34830000
H      -46.71630000     -32.19310000     -67.43920000
