40
Properties=species:S:1:pos:R:3 #=T CELL(abcABC):=T 1.889726e+02=T 90.00000=T Traj:=T positionsangstrom=T Step:=T 0=T Bead:=T pbc="F F F"
C      -42.81120000     -36.93180000     -70.19640000
C      -42.82690000     -35.61280000     -69.82010000
C      -42.52620000     -34.61600000     -70.79950000
C      -42.12980000     -34.88960000     -72.13810000
C      -42.13080000     -36.27500000     -72.44790000
C      -42.50760000     -37.28510000     -71.50650000
H      -43.04910000     -37.75500000     -69.58880000
H      -42.41970000     -33.54500000     -70.55420000
H      -41.81670000     -36.61800000     -73.39910000
H      -42.46580000     -38.37500000     -71.83110000
C      -41.70330000     -33.78500000     -73.10230000
H      -41.77070000     -34.05260000     -74.17880000
H      -40.64700000     -33.48400000     -72.94120000
C      -42.99330000     -35.17560000     -68.39060000
H      -43.46970000     -35.93260000     -67.71490000
H      -42.00630000     -35.08810000     -67.96050000
S      -42.47270000     -32.17350000     -72.76210000
S      -43.74780000     -33.50570000     -68.27520000
C      -44.28850000     -32.52860000     -72.87020000
H      -44.43460000     -33.18920000     -73.74370000
H      -44.49350000     -33.11990000     -71.89820000
C      -45.33770000     -33.72580000     -69.11840000
H      -45.97720000     -34.13910000     -68.35370000
H      -45.21980000     -34.45200000     -69.96940000
C      -45.90030000     -32.34070000     -69.45610000
H      -45.90400000     -31.79330000     -68.53470000
H      -45.22890000     -31.76740000     -70.08010000
C      -45.19660000     -31.30030000     -73.02240000
H      -45.11940000     -30.90700000     -74.06810000
H      -45.04260000     -30.46300000     -72.35320000
C      -46.69970000     -31.82300000     -72.87530000
C      -47.58340000     -31.64660000     -73.90800000
C      -47.39760000     -32.26480000     -71.65870000
H      -47.20720000     -31.23820000     -74.84990000
C      -48.74810000     -32.50430000     -72.05560000
C      -47.22340000     -32.44330000     -70.24390000
C      -48.35350000     -32.86410000     -69.60900000
S      -49.28520000     -32.06820000     -73.64930000
S      -49.81120000     -32.85100000     -70.65810000
H      -48.47420000     -33.00270000     -68.56420000
