40
Properties=species:S:1:pos:R:3 #=T CELL(abcABC):=T 1.889726e+02=T 90.00000=T Traj:=T positionsangstrom=T Step:=T 0=T Bead:=T pbc="F F F"
C      -43.67780000     -36.38150000     -70.65070000
C      -44.73980000     -36.70590000     -71.52340000
C      -44.67080000     -36.26430000     -72.85000000
C      -43.60940000     -35.43960000     -73.35060000
C      -42.65270000     -35.00480000     -72.40660000
C      -42.70820000     -35.49130000     -71.14250000
H      -43.54750000     -36.72240000     -69.60420000
H      -45.37250000     -36.71440000     -73.56420000
H      -41.69640000     -34.54740000     -72.66320000
H      -41.88310000     -35.24430000     -70.50680000
C      -43.81940000     -34.97450000     -74.77100000
H      -44.59730000     -35.59310000     -75.19090000
H      -42.91750000     -34.99550000     -75.43860000
C      -45.91100000     -37.34700000     -70.92030000
H      -46.30690000     -38.09500000     -71.61780000
H      -45.61590000     -37.92820000     -70.08400000
S      -44.38740000     -33.15910000     -74.82180000
S      -47.28730000     -36.18070000     -70.46110000
C      -45.99280000     -33.15550000     -73.92630000
H      -46.50260000     -32.23470000     -74.28380000
H      -46.55770000     -34.02640000     -74.34820000
C      -46.58780000     -34.95470000     -69.29630000
H      -45.54790000     -34.81620000     -69.56900000
H      -46.60790000     -35.36960000     -68.30110000
C      -47.40320000     -33.59580000     -69.27260000
H      -48.09870000     -33.59230000     -70.13900000
H      -48.04220000     -33.78090000     -68.41040000
C      -46.11600000     -33.19840000     -72.42610000
H      -45.64340000     -34.04720000     -72.01570000
H      -47.21260000     -33.31960000     -72.25500000
C      -45.81230000     -31.88540000     -71.74120000
C      -45.22450000     -30.78340000     -72.34220000
C      -46.01010000     -31.61130000     -70.37620000
H      -44.92780000     -30.75120000     -73.36920000
C      -45.43130000     -30.46540000     -69.94570000
C      -46.62490000     -32.29390000     -69.24770000
C      -46.52480000     -31.58550000     -68.03920000
S      -44.68940000     -29.51500000     -71.20590000
S      -45.54420000     -30.10300000     -68.22830000
H      -46.80440000     -32.08910000     -67.15310000
