40
Properties=species:S:1:pos:R:3 #=T CELL(abcABC):=T 1.889726e+02=T 90.00000=T Traj:=T positionsangstrom=T Step:=T 0=T Bead:=T pbc="F F F"
C      -43.02540000     -36.52040000     -70.76090000
C      -44.38080000     -36.60020000     -70.94300000
C      -44.80870000     -36.04570000     -72.11660000
C      -43.98040000     -35.60020000     -73.15430000
C      -42.57290000     -35.65110000     -73.04720000
C      -42.11470000     -36.11060000     -71.75610000
H      -42.61550000     -36.86300000     -69.78250000
H      -45.87520000     -35.97180000     -72.39610000
H      -41.92480000     -35.35850000     -73.84410000
H      -41.05090000     -36.05500000     -71.53610000
C      -44.53570000     -35.03060000     -74.43120000
H      -45.54290000     -35.23560000     -74.51920000
H      -44.00630000     -35.47470000     -75.29020000
C      -45.24210000     -37.26070000     -69.92140000
H      -45.49030000     -38.25450000     -70.24190000
H      -44.72950000     -37.22450000     -68.92140000
S      -44.29210000     -33.21900000     -74.77350000
S      -46.88420000     -36.46680000     -69.64590000
C      -46.02220000     -32.57100000     -74.41950000
H      -45.83880000     -31.53840000     -74.82340000
H      -46.78410000     -33.08980000     -75.08960000
C      -46.29540000     -34.75080000     -69.60890000
H      -45.52350000     -34.58340000     -70.36110000
H      -45.89040000     -34.47230000     -68.68710000
C      -47.38510000     -33.71430000     -69.79330000
H      -47.87650000     -33.85390000     -70.77830000
H      -48.21280000     -33.94680000     -69.04390000
C      -46.46190000     -32.62100000     -72.94720000
H      -46.46330000     -33.68240000     -72.58730000
H      -47.47680000     -32.32300000     -72.92390000
C      -45.76780000     -31.70130000     -71.93010000
C      -45.05440000     -30.63380000     -72.37590000
C      -46.04360000     -31.59640000     -70.56190000
H      -44.50490000     -30.52700000     -73.32400000
C      -45.50540000     -30.42530000     -70.02310000
C      -46.90810000     -32.28410000     -69.64230000
C      -47.13960000     -31.56960000     -68.45010000
S      -44.58300000     -29.50940000     -71.14080000
S      -46.26120000     -30.04190000     -68.43480000
H      -47.75070000     -31.90110000     -67.63080000
