40
Properties=species:S:1:pos:R:3 #=T CELL(abcABC):=T 1.889726e+02=T 90.00000=T Traj:=T positionsangstrom=T Step:=T 0=T Bead:=T pbc="F F F"
C      -46.38500000     -30.96640000     -73.93370000
C      -45.90680000     -32.19180000     -74.41460000
C      -44.56110000     -32.47580000     -74.28340000
C      -43.63400000     -31.58100000     -73.60210000
C      -44.16930000     -30.38430000     -73.08660000
C      -45.51950000     -30.06420000     -73.32760000
H      -47.43930000     -30.75710000     -74.04060000
H      -44.08280000     -33.43790000     -74.61500000
H      -43.49830000     -29.69510000     -72.55490000
H      -45.82990000     -29.09360000     -72.97870000
C      -42.17100000     -31.82580000     -73.32740000
H      -41.83590000     -30.95990000     -72.76200000
H      -41.54270000     -31.92770000     -74.17210000
C      -46.71630000     -33.18280000     -75.25690000
H      -47.78400000     -32.95630000     -75.30590000
H      -46.42580000     -33.24840000     -76.35060000
S      -41.89100000     -33.36710000     -72.23980000
S      -46.62230000     -34.87150000     -74.60740000
C      -43.11440000     -32.90850000     -70.80270000
H      -42.64290000     -32.11090000     -70.23040000
H      -44.03630000     -32.57240000     -71.27560000
C      -47.22110000     -34.78230000     -72.80500000
H      -47.60700000     -35.73650000     -72.56450000
H      -48.05060000     -34.11550000     -72.85920000
C      -46.15140000     -34.31650000     -71.85510000
H      -45.31350000     -34.97210000     -71.97060000
H      -45.85380000     -33.38190000     -72.23840000
C      -43.17720000     -34.19500000     -69.96390000
H      -42.19510000     -34.39150000     -69.61140000
H      -43.28430000     -35.07190000     -70.74770000
C      -44.27460000     -34.26440000     -68.94320000
C      -43.97800000     -34.05780000     -67.62210000
C      -45.70630000     -34.26060000     -69.22620000
H      -42.98290000     -34.09020000     -67.22020000
C      -46.43320000     -34.10850000     -68.04370000
C      -46.61500000     -34.25020000     -70.40970000
C      -47.88540000     -34.07420000     -70.03860000
S      -45.43160000     -34.13130000     -66.61000000
S      -48.20180000     -34.03420000     -68.31420000
H      -48.66780000     -33.98280000     -70.73130000
