40
Properties=species:S:1:pos:R:3 #=T CELL(abcABC):=T 1.889726e+02=T 90.00000=T Traj:=T positionsangstrom=T Step:=T 0=T Bead:=T pbc="F F F"
C      -46.49260000     -30.64200000     -73.50710000
C      -45.92020000     -31.68630000     -74.22610000
C      -44.54670000     -32.00380000     -74.07730000
C      -43.80420000     -31.31830000     -73.11840000
C      -44.39960000     -30.25010000     -72.41990000
C      -45.73310000     -29.94110000     -72.60980000
H      -47.50460000     -30.28450000     -73.75240000
H      -44.08100000     -32.71500000     -74.74670000
H      -43.69300000     -29.68760000     -71.80320000
H      -46.28770000     -29.11850000     -72.04860000
C      -42.34320000     -31.69180000     -73.01780000
H      -41.75090000     -31.04200000     -72.34010000
H      -41.86290000     -31.47770000     -74.02160000
C      -46.67870000     -32.47890000     -75.25040000
H      -47.57570000     -32.05710000     -75.63050000
H      -46.15280000     -32.72300000     -76.07700000
S      -41.95650000     -33.39130000     -72.61850000
S      -47.24440000     -34.13330000     -74.51690000
C      -42.81030000     -33.67420000     -70.92780000
H      -42.09380000     -33.46060000     -70.08490000
H      -43.70970000     -33.05530000     -70.77700000
C      -47.49810000     -33.78430000     -72.68910000
H      -48.52400000     -34.15390000     -72.54870000
H      -47.48470000     -32.67980000     -72.53780000
C      -46.48420000     -34.52270000     -71.90060000
H      -46.53860000     -35.60060000     -72.09670000
H      -45.47180000     -34.11280000     -72.11880000
C      -43.38940000     -35.10760000     -70.70310000
H      -42.53970000     -35.79580000     -70.63490000
H      -43.93380000     -35.46660000     -71.63420000
C      -44.29000000     -35.06200000     -69.44480000
C      -43.72150000     -35.17410000     -68.17600000
C      -45.65140000     -34.75030000     -69.41550000
H      -42.77350000     -35.41580000     -67.85770000
C      -46.15050000     -34.55850000     -68.14170000
C      -46.69070000     -34.29050000     -70.41620000
C      -47.76370000     -33.64470000     -69.86990000
S      -44.91140000     -35.02730000     -66.92030000
S      -47.70630000     -33.60870000     -68.13750000
H      -48.61370000     -33.16580000     -70.38530000
