40
Properties=species:S:1:pos:R:3 #=T CELL(abcABC):=T 1.889726e+02=T 90.00000=T Traj:=T positionsangstrom=T Step:=T 0=T Bead:=T pbc="F F F"
C      -46.46190000     -30.66970000     -74.00880000
C      -45.89410000     -31.90190000     -74.47640000
C      -44.54450000     -32.15160000     -74.15620000
C      -43.83430000     -31.24970000     -73.36470000
C      -44.44290000     -30.06340000     -72.83640000
C      -45.74250000     -29.80830000     -73.16570000
H      -47.43300000     -30.32000000     -74.29110000
H      -44.08460000     -33.05740000     -74.47560000
H      -43.99910000     -29.41660000     -72.12790000
H      -46.20290000     -28.96030000     -72.66380000
C      -42.42600000     -31.51530000     -72.92830000
H      -42.12560000     -30.86520000     -72.09260000
H      -41.60610000     -31.26080000     -73.60880000
C      -46.72050000     -32.80660000     -75.34180000
H      -47.73160000     -32.53740000     -75.38610000
H      -46.39110000     -32.94600000     -76.40700000
S      -42.17220000     -33.35340000     -72.42980000
S      -46.77150000     -34.63780000     -74.58560000
C      -42.79230000     -33.44820000     -70.74720000
H      -41.95740000     -33.02440000     -70.10630000
H      -43.60790000     -32.81520000     -70.64440000
C      -47.42300000     -34.23340000     -72.85550000
H      -48.31110000     -34.89890000     -72.69840000
H      -47.80920000     -33.22500000     -72.84320000
C      -46.24680000     -34.49940000     -71.81770000
H      -45.92420000     -35.52850000     -71.88660000
H      -45.51240000     -33.89840000     -72.21510000
C      -43.26420000     -34.83600000     -70.38770000
H      -42.40150000     -35.57820000     -70.11180000
H      -43.66620000     -35.36620000     -71.19090000
C      -44.18620000     -34.81350000     -69.20390000
C      -43.76390000     -34.81080000     -67.87450000
C      -45.66150000     -34.53190000     -69.29740000
H      -42.69960000     -35.01420000     -67.56160000
C      -46.28940000     -34.45400000     -67.97680000
C      -46.55800000     -34.23150000     -70.36260000
C      -47.79930000     -33.82700000     -69.90380000
S      -45.06730000     -34.55930000     -66.71540000
S      -47.93840000     -33.87430000     -68.17760000
H      -48.74350000     -33.58390000     -70.38500000
