40
Properties=species:S:1:pos:R:3 #=T CELL(abcABC):=T 1.889726e+02=T 90.00000=T Traj:=T positionsangstrom=T Step:=T 0=T Bead:=T pbc="F F F"
C      -46.29020000     -31.34730000     -74.13690000
C      -45.54170000     -32.39190000     -74.70220000
C      -44.14810000     -32.44840000     -74.49510000
C      -43.50750000     -31.45730000     -73.70030000
C      -44.29230000     -30.39680000     -73.18770000
C      -45.71180000     -30.35250000     -73.40380000
H      -47.35720000     -31.38020000     -74.32240000
H      -43.56500000     -33.22290000     -74.94350000
H      -43.93040000     -29.69610000     -72.40020000
H      -46.14170000     -29.57920000     -72.79000000
C      -42.03580000     -31.66670000     -73.35600000
H      -41.65300000     -30.82270000     -72.85560000
H      -41.44680000     -31.87690000     -74.23630000
C      -46.30890000     -33.50660000     -75.34170000
H      -47.30360000     -33.04940000     -75.49650000
H      -45.87740000     -33.75680000     -76.30330000
S      -42.02200000     -33.21390000     -72.25910000
S      -46.30600000     -35.08460000     -74.29050000
C      -43.07680000     -32.83910000     -70.83670000
H      -42.77210000     -31.94960000     -70.25390000
H      -44.05460000     -32.44890000     -71.11750000
C      -47.20820000     -34.46310000     -72.81750000
H      -48.00010000     -35.17160000     -72.57520000
H      -47.62710000     -33.52260000     -72.98840000
C      -46.20000000     -34.31700000     -71.68700000
H      -45.42910000     -35.00680000     -71.65840000
H      -45.75790000     -33.37040000     -71.85120000
C      -43.42840000     -34.07680000     -70.08260000
H      -42.49430000     -34.31440000     -69.53560000
H      -43.66280000     -34.86760000     -70.71390000
C      -44.46830000     -33.90220000     -69.07310000
C      -44.14540000     -33.46110000     -67.79000000
C      -45.87440000     -34.31720000     -69.18530000
H      -43.10870000     -33.17170000     -67.53190000
C      -46.55490000     -34.31150000     -67.92840000
C      -46.75760000     -34.26270000     -70.32470000
C      -48.06180000     -34.49460000     -69.93810000
S      -45.48200000     -33.69820000     -66.67450000
S      -48.33700000     -34.38320000     -68.15810000
H      -48.96880000     -34.60190000     -70.59130000
