40
Properties=species:S:1:pos:R:3 #=T CELL(abcABC):=T 1.889726e+02=T 90.00000=T Traj:=T positionsangstrom=T Step:=T 0=T Bead:=T pbc="F F F"
C      -46.41690000     -30.84500000     -74.00020000
C      -45.97190000     -32.10090000     -74.38210000
C      -44.58700000     -32.37110000     -74.23380000
C      -43.70310000     -31.48570000     -73.55830000
C      -44.24040000     -30.33970000     -72.96640000
C      -45.59060000     -29.97900000     -73.32480000
H      -47.43920000     -30.44290000     -74.16910000
H      -44.07840000     -33.18610000     -74.80610000
H      -43.57490000     -29.82800000     -72.23280000
H      -46.02490000     -29.04090000     -73.08870000
C      -42.24740000     -31.86690000     -73.36170000
H      -41.71350000     -30.95160000     -73.06470000
H      -41.89240000     -32.22950000     -74.29980000
C      -46.94330000     -33.03250000     -75.11750000
H      -47.95120000     -32.70350000     -74.86180000
H      -46.74670000     -32.89160000     -76.16410000
S      -41.96680000     -33.27610000     -72.21500000
S      -46.75940000     -34.83310000     -74.57200000
C      -42.99190000     -33.09730000     -70.72750000
H      -42.57620000     -32.32540000     -70.12830000
H      -43.97440000     -32.61260000     -71.01800000
C      -47.19040000     -34.67540000     -72.83240000
H      -47.69990000     -35.53550000     -72.38070000
H      -47.95300000     -33.82380000     -72.80980000
C      -46.00120000     -34.29580000     -71.92730000
H      -45.22140000     -35.08920000     -71.90450000
H      -45.50450000     -33.35940000     -72.23150000
C      -43.10690000     -34.51100000     -70.03580000
H      -42.14880000     -34.76220000     -69.68290000
H      -43.49260000     -35.18390000     -70.75510000
C      -44.20820000     -34.49710000     -68.93710000
C      -43.94740000     -34.33030000     -67.59240000
C      -45.62260000     -34.42640000     -69.23410000
H      -42.96230000     -34.33230000     -67.14040000
C      -46.38390000     -34.24510000     -68.12690000
C      -46.48330000     -34.19600000     -70.45060000
C      -47.75390000     -33.94550000     -70.10650000
S      -45.42250000     -34.27770000     -66.64610000
S      -48.07310000     -33.89990000     -68.36760000
H      -48.45970000     -33.75620000     -70.87970000
