40
Properties=species:S:1:pos:R:3 #=T CELL(abcABC):=T 1.889726e+02=T 90.00000=T Traj:=T positionsangstrom=T Step:=T 0=T Bead:=T pbc="F F F"
C      -43.08460000     -33.31140000     -73.82280000
C      -42.99750000     -32.10170000     -73.12050000
C      -44.03790000     -31.20120000     -73.13660000
C      -45.13770000     -31.39370000     -73.96520000
C      -45.25790000     -32.57590000     -74.66240000
C      -44.28480000     -33.56280000     -74.53510000
H      -42.27370000     -34.13510000     -73.79300000
H      -43.96270000     -30.38850000     -72.41860000
H      -46.14800000     -32.71760000     -75.28600000
H      -44.41030000     -34.48520000     -75.05320000
C      -46.31790000     -30.38930000     -73.93060000
H      -47.16110000     -30.87990000     -74.52770000
H      -45.96100000     -29.39870000     -74.09100000
C      -41.70810000     -31.82000000     -72.26710000
H      -40.93220000     -32.48810000     -72.53320000
H      -41.33130000     -30.81210000     -72.55800000
S      -47.21070000     -30.06810000     -72.34750000
S      -41.93710000     -32.00170000     -70.34880000
C      -47.70850000     -31.76540000     -71.83380000
H      -48.73970000     -31.87060000     -71.43030000
H      -47.74650000     -32.35330000     -72.76510000
C      -43.18540000     -33.39340000     -70.46920000
H      -42.65760000     -34.40520000     -70.69740000
H      -43.85440000     -33.28610000     -71.25520000
C      -43.98620000     -33.46170000     -69.08140000
H      -43.25330000     -33.48960000     -68.18560000
H      -44.67390000     -32.60580000     -68.79940000
C      -46.67610000     -32.37160000     -70.84500000
H      -46.84900000     -31.85580000     -69.93950000
H      -45.67240000     -31.99910000     -71.22380000
C      -46.91900000     -33.87680000     -70.63040000
C      -48.03910000     -34.50520000     -71.16170000
C      -46.04740000     -34.75500000     -69.90340000
H      -48.82600000     -34.15020000     -71.73040000
C      -46.64770000     -36.00720000     -69.73530000
C      -44.84290000     -34.68650000     -69.17810000
C      -44.51800000     -35.82720000     -68.57020000
S      -48.05710000     -36.20620000     -70.67370000
S      -45.80650000     -37.12060000     -68.68160000
H      -43.59620000     -36.10560000     -68.14110000
