40
Properties=species:S:1:pos:R:3 #=T CELL(abcABC):=T 1.889726e+02=T 90.00000=T Traj:=T positionsangstrom=T Step:=T 0=T Bead:=T pbc="F F F"
C      -46.31230000     -31.43010000     -74.61890000
C      -45.66540000     -32.70750000     -74.63730000
C      -44.37880000     -32.71610000     -74.16560000
C      -43.77140000     -31.56200000     -73.71770000
C      -44.36620000     -30.29670000     -73.88870000
C      -45.69870000     -30.24600000     -74.22320000
H      -47.30670000     -31.27510000     -75.05390000
H      -43.82540000     -33.66770000     -74.24510000
H      -43.77380000     -29.33960000     -73.62770000
H      -46.24030000     -29.32470000     -74.37190000
C      -42.32580000     -31.56990000     -73.14040000
H      -42.14990000     -30.62420000     -72.61270000
H      -41.64560000     -31.50860000     -73.94830000
C      -46.44130000     -33.85980000     -75.15990000
H      -47.49990000     -33.59790000     -75.15940000
H      -46.20760000     -34.01840000     -76.26910000
S      -41.88340000     -33.00710000     -72.05170000
S      -46.17810000     -35.48370000     -74.37640000
C      -43.01560000     -32.61260000     -70.71930000
H      -42.58660000     -31.80900000     -70.14480000
H      -43.98540000     -32.28100000     -71.16150000
C      -47.01490000     -35.20030000     -72.69200000
H      -47.57490000     -36.06140000     -72.40180000
H      -47.76190000     -34.37280000     -72.81090000
C      -45.94180000     -34.80250000     -71.64770000
H      -45.18160000     -35.59540000     -71.54450000
H      -45.40940000     -33.98120000     -72.07530000
C      -43.22450000     -33.82320000     -69.69370000
H      -42.40250000     -33.94630000     -69.05530000
H      -43.29980000     -34.78150000     -70.28740000
C      -44.42730000     -33.64850000     -68.78990000
C      -44.33580000     -33.29070000     -67.47130000
C      -45.82620000     -33.87870000     -69.14160000
H      -43.38220000     -32.96700000     -66.94710000
C      -46.65870000     -33.70020000     -68.02640000
C      -46.49520000     -34.51260000     -70.25930000
C      -47.84200000     -34.70730000     -70.01400000
S      -45.77550000     -33.37910000     -66.53850000
S      -48.27260000     -34.22080000     -68.40500000
H      -48.56210000     -35.28430000     -70.54370000
