40
Properties=species:S:1:pos:R:3 #=T CELL(abcABC):=T 1.889726e+02=T 90.00000=T Traj:=T positionsangstrom=T Step:=T 0=T Bead:=T pbc="F F F"
C      -46.36530000     -31.68700000     -74.53070000
C      -45.54000000     -32.76800000     -74.73900000
C      -44.19640000     -32.71150000     -74.38940000
C      -43.66480000     -31.52950000     -73.79370000
C      -44.51810000     -30.40440000     -73.62390000
C      -45.86080000     -30.51240000     -73.94590000
H      -47.40330000     -31.83580000     -74.81730000
H      -43.65480000     -33.65860000     -74.39730000
H      -44.08300000     -29.44290000     -73.24360000
H      -46.54570000     -29.64300000     -73.84410000
C      -42.24710000     -31.50000000     -73.42000000
H      -41.90660000     -30.48410000     -73.19120000
H      -41.63490000     -31.76620000     -74.29160000
C      -46.10620000     -34.05750000     -75.27840000
H      -47.20490000     -33.95020000     -75.57180000
H      -45.56820000     -34.17750000     -76.24310000
S      -41.92470000     -32.69640000     -72.00600000
S      -45.93650000     -35.63610000     -74.29010000
C      -43.24180000     -32.42260000     -70.79310000
H      -43.06060000     -31.51610000     -70.25490000
H      -44.17560000     -32.45440000     -71.34630000
C      -46.91030000     -35.17450000     -72.76110000
H      -47.12930000     -36.09020000     -72.30280000
H      -47.79830000     -34.70460000     -73.05050000
C      -46.07670000     -34.43050000     -71.73640000
H      -45.07110000     -34.88910000     -71.58190000
H      -45.90420000     -33.40260000     -72.21230000
C      -43.40000000     -33.62800000     -69.87830000
H      -42.50760000     -33.76250000     -69.33560000
H      -43.51950000     -34.54610000     -70.54990000
C      -44.47990000     -33.49110000     -68.82430000
C      -44.25550000     -33.32460000     -67.52320000
C      -45.87670000     -33.81840000     -69.15440000
H      -43.26670000     -33.29690000     -66.97670000
C      -46.72500000     -33.73410000     -68.00510000
C      -46.64770000     -34.37700000     -70.29850000
C      -47.93760000     -34.74620000     -69.94830000
S      -45.78220000     -33.36710000     -66.51110000
S      -48.34050000     -34.47340000     -68.27540000
H      -48.68530000     -35.14060000     -70.65930000
