40
Properties=species:S:1:pos:R:3 #=T CELL(abcABC):=T 1.889726e+02=T 90.00000=T Traj:=T positionsangstrom=T Step:=T 0=T Bead:=T pbc="F F F"
C      -47.09270000     -33.29130000     -74.29060000
C      -45.78310000     -33.77740000     -74.57980000
C      -44.65300000     -32.93410000     -74.51370000
C      -44.81120000     -31.63800000     -74.02950000
C      -46.10420000     -31.08850000     -73.89180000
C      -47.21680000     -31.96070000     -73.95420000
H      -48.02720000     -33.86560000     -74.46770000
H      -43.68630000     -33.30000000     -74.61930000
H      -46.27960000     -30.14310000     -73.44980000
H      -48.23340000     -31.60250000     -73.74530000
C      -43.54570000     -30.86880000     -73.72850000
H      -43.72980000     -29.82800000     -73.54070000
H      -42.91800000     -30.95970000     -74.62650000
C      -45.47520000     -35.18210000     -75.12480000
H      -46.28720000     -35.88770000     -75.31380000
H      -44.85640000     -35.10930000     -75.99380000
S      -42.54730000     -31.54390000     -72.28680000
S      -44.39510000     -36.05150000     -73.85590000
C      -43.83770000     -31.45290000     -70.99720000
H      -44.10590000     -30.47160000     -70.69990000
H      -44.65670000     -32.07530000     -71.37410000
C      -45.41130000     -36.03590000     -72.23780000
H      -45.25850000     -37.12920000     -71.90420000
H      -46.45790000     -35.96270000     -72.59330000
C      -44.86950000     -35.09130000     -71.20620000
H      -43.96070000     -35.62660000     -70.89760000
H      -44.59850000     -34.11910000     -71.72100000
C      -43.41440000     -32.27520000     -69.78250000
H      -42.63520000     -31.76400000     -69.17820000
H      -42.83910000     -33.22610000     -70.00170000
C      -44.59030000     -32.58320000     -68.93150000
C      -44.87850000     -31.87200000     -67.75750000
C      -45.56450000     -33.68620000     -69.10180000
H      -44.37950000     -30.86090000     -67.58510000
C      -46.48510000     -33.72080000     -68.01910000
C      -45.80280000     -34.70030000     -70.10290000
C      -47.01330000     -35.35290000     -69.87250000
S      -46.31590000     -32.39740000     -66.86410000
S      -47.75290000     -34.87810000     -68.32420000
H      -47.37350000     -36.19250000     -70.47800000
