40
Properties=species:S:1:pos:R:3 #=T CELL(abcABC):=T 1.889726e+02=T 90.00000=T Traj:=T positionsangstrom=T Step:=T 0=T Bead:=T pbc="F F F"
C      -48.66250000     -36.26930000     -71.21260000
C      -48.69600000     -34.87760000     -71.14510000
C      -48.35950000     -34.06270000     -72.24550000
C      -47.80990000     -34.70620000     -73.44760000
C      -47.87030000     -36.12540000     -73.51150000
C      -48.31770000     -36.88300000     -72.44460000
H      -49.05710000     -36.85610000     -70.40110000
H      -48.28430000     -33.00280000     -72.03510000
H      -47.36760000     -36.72080000     -74.32850000
H      -48.40830000     -37.99790000     -72.56180000
C      -47.17070000     -34.03950000     -74.63170000
H      -47.14070000     -32.96600000     -74.63870000
H      -47.66030000     -34.21740000     -75.60120000
C      -48.97340000     -34.24610000     -69.86600000
H      -49.08080000     -33.17370000     -70.00150000
H      -50.02400000     -34.53090000     -69.46440000
S      -45.47250000     -34.55740000     -74.87930000
S      -47.68670000     -34.58160000     -68.57220000
C      -44.44370000     -33.22260000     -74.19220000
H      -43.56480000     -33.16080000     -74.85990000
H      -44.90160000     -32.20380000     -74.26110000
C      -46.48620000     -33.26120000     -68.89400000
H      -46.24500000     -32.77980000     -67.93130000
H      -46.76240000     -32.54240000     -69.60930000
C      -45.12800000     -33.79810000     -69.32720000
H      -44.80040000     -34.50790000     -68.50740000
H      -45.11690000     -34.40360000     -70.21320000
C      -44.24900000     -33.48380000     -72.71550000
H      -43.94750000     -34.48720000     -72.56840000
H      -45.32030000     -33.37110000     -72.29250000
C      -43.39630000     -32.43350000     -72.08530000
C      -42.42780000     -31.66240000     -72.72110000
C      -43.28560000     -32.30510000     -70.59800000
H      -42.22990000     -31.63460000     -73.79420000
C      -42.38000000     -31.25750000     -70.27560000
C      -44.06670000     -32.72660000     -69.41890000
C      -43.69150000     -32.07440000     -68.30790000
S      -41.44820000     -30.67580000     -71.63280000
S      -42.34170000     -30.94020000     -68.52200000
H      -43.95340000     -32.25830000     -67.28780000
