40
Properties=species:S:1:pos:R:3 #=T CELL(abcABC):=T 1.889726e+02=T 90.00000=T Traj:=T positionsangstrom=T Step:=T 0=T Bead:=T pbc="F F F"
C      -48.92200000     -36.26850000     -71.32630000
C      -48.65670000     -34.91250000     -71.19890000
C      -47.99190000     -34.16790000     -72.20610000
C      -47.74770000     -34.82010000     -73.41910000
C      -47.94720000     -36.20180000     -73.55380000
C      -48.37800000     -36.90790000     -72.46420000
H      -49.19880000     -36.85640000     -70.51660000
H      -47.95870000     -33.06870000     -72.11550000
H      -47.73700000     -36.78890000     -74.55470000
H      -48.55410000     -37.97630000     -72.55390000
C      -47.08890000     -33.93960000     -74.55640000
H      -46.99940000     -32.85640000     -74.25460000
H      -47.73970000     -34.03320000     -75.43160000
C      -48.99570000     -34.15490000     -69.93330000
H      -49.24510000     -33.12060000     -70.06350000
H      -49.91750000     -34.57620000     -69.48250000
S      -45.41480000     -34.73230000     -74.96830000
S      -47.78960000     -34.41570000     -68.56450000
C      -44.32030000     -33.46510000     -74.19770000
H      -43.36510000     -33.91820000     -74.28890000
H      -44.42220000     -32.52930000     -74.74270000
C      -46.49690000     -33.12660000     -68.99820000
H      -46.34200000     -32.42070000     -68.16510000
H      -46.89840000     -32.48060000     -69.82460000
C      -45.20680000     -33.77880000     -69.43050000
H      -44.97770000     -34.64640000     -68.72400000
H      -45.28870000     -34.19200000     -70.40300000
C      -44.47360000     -33.30880000     -72.70950000
H      -44.39910000     -34.26030000     -72.16230000
H      -45.48860000     -32.90890000     -72.49820000
C      -43.38720000     -32.44960000     -72.02210000
C      -42.51350000     -31.56660000     -72.64360000
C      -43.33550000     -32.16820000     -70.55180000
H      -42.35350000     -31.47990000     -73.72810000
C      -42.39240000     -31.23880000     -70.22880000
C      -44.01150000     -32.73290000     -69.39710000
C      -43.54830000     -32.19680000     -68.26700000
S      -41.48140000     -30.68640000     -71.58020000
S      -42.23540000     -30.93890000     -68.45530000
H      -43.87760000     -32.47120000     -67.28800000
