40
Properties=species:S:1:pos:R:3 #=T CELL(abcABC):=T 1.889726e+02=T 90.00000=T Traj:=T positionsangstrom=T Step:=T 0=T Bead:=T pbc="F F F"
C      -48.58850000     -36.59680000     -71.26580000
C      -48.43510000     -35.24290000     -70.92240000
C      -47.84070000     -34.35700000     -71.86150000
C      -47.54340000     -34.81910000     -73.17010000
C      -47.74440000     -36.18060000     -73.48230000
C      -48.19260000     -37.07560000     -72.50910000
H      -48.99940000     -37.27130000     -70.53320000
H      -47.59460000     -33.30050000     -71.65010000
H      -47.44820000     -36.50410000     -74.47630000
H      -48.31700000     -38.15890000     -72.76760000
C      -47.22980000     -33.86110000     -74.21820000
H      -47.04050000     -32.83890000     -73.81430000
H      -48.07680000     -33.77430000     -74.93570000
C      -48.98690000     -34.80010000     -69.58510000
H      -49.42470000     -33.75150000     -69.62560000
H      -49.75120000     -35.59180000     -69.26000000
S      -45.68330000     -34.22660000     -75.14330000
S      -47.59430000     -34.82830000     -68.36070000
C      -44.52750000     -33.13350000     -74.20650000
H      -43.73140000     -32.90620000     -74.91560000
H      -44.95970000     -32.07000000     -74.23110000
C      -46.39620000     -33.33210000     -68.71670000
H      -46.17270000     -32.97400000     -67.69610000
H      -46.81400000     -32.51630000     -69.30500000
C      -45.06880000     -33.72390000     -69.43570000
H      -44.49350000     -34.50920000     -68.89840000
H      -45.24920000     -34.10370000     -70.43650000
C      -44.18380000     -33.53160000     -72.76240000
H      -43.74500000     -34.46720000     -72.80800000
H      -45.12260000     -33.68100000     -72.17560000
C      -43.27780000     -32.52780000     -72.04620000
C      -42.35210000     -31.79350000     -72.71790000
C      -43.32310000     -32.21260000     -70.64740000
H      -42.04560000     -31.93210000     -73.73500000
C      -42.50850000     -31.14750000     -70.37440000
C      -44.10260000     -32.58430000     -69.48850000
C      -43.93270000     -31.71540000     -68.45070000
S      -41.49150000     -30.65520000     -71.74960000
S      -42.64320000     -30.55090000     -68.84660000
H      -44.21770000     -31.87780000     -67.42830000
