40
Properties=species:S:1:pos:R:3 #=T CELL(abcABC):=T 1.889726e+02=T 90.00000=T Traj:=T positionsangstrom=T Step:=T 0=T Bead:=T pbc="F F F"
C      -46.95540000     -33.34600000     -74.62420000
C      -45.67270000     -33.87600000     -74.61650000
C      -44.56600000     -32.98580000     -74.38390000
C      -44.82620000     -31.64060000     -74.12780000
C      -46.12500000     -31.15520000     -73.86090000
C      -47.19630000     -31.98340000     -74.19490000
H      -47.86320000     -33.93310000     -74.67280000
H      -43.57750000     -33.36030000     -74.33650000
H      -46.24710000     -30.11310000     -73.57410000
H      -48.21150000     -31.63990000     -74.22750000
C      -43.74590000     -30.75500000     -73.68480000
H      -44.03840000     -29.72350000     -73.41500000
H      -43.02410000     -30.55770000     -74.56840000
C      -45.43120000     -35.35960000     -74.76920000
H      -46.40970000     -35.83930000     -74.58640000
H      -45.27520000     -35.45200000     -75.84190000
S      -42.77990000     -31.50850000     -72.30620000
S      -44.23040000     -36.15620000     -73.70240000
C      -43.95560000     -31.50060000     -70.91670000
H      -44.21100000     -30.43910000     -70.65780000
H      -44.95400000     -31.75310000     -71.33380000
C      -45.13860000     -35.93570000     -72.12160000
H      -44.87940000     -36.85160000     -71.55100000
H      -46.14960000     -35.94640000     -72.43680000
C      -44.73510000     -34.76960000     -71.26370000
H      -43.63770000     -34.66830000     -71.07870000
H      -44.98040000     -33.87650000     -71.83700000
C      -43.42570000     -32.22910000     -69.67740000
H      -42.75650000     -31.54950000     -69.22650000
H      -42.70320000     -33.05640000     -69.96740000
C      -44.59700000     -32.60820000     -68.80980000
C      -44.99090000     -31.88120000     -67.67930000
C      -45.64030000     -33.56320000     -69.17070000
H      -44.16870000     -31.18620000     -67.22920000
C      -46.68580000     -33.51450000     -68.27070000
C      -45.61020000     -34.67840000     -70.00690000
C      -46.67880000     -35.55340000     -69.73430000
S      -46.50120000     -32.39270000     -66.95390000
S      -47.71950000     -34.93490000     -68.49100000
H      -47.02880000     -36.41280000     -70.23450000
