40
Properties=species:S:1:pos:R:3 #=T CELL(abcABC):=T 1.889726e+02=T 90.00000=T Traj:=T positionsangstrom=T Step:=T 0=T Bead:=T pbc="F F F"
C      -41.68270000     -34.63360000     -72.63090000
C      -42.87900000     -35.33860000     -72.41960000
C      -43.96250000     -35.25650000     -73.24630000
C      -43.85550000     -34.42620000     -74.36060000
C      -42.69500000     -33.69820000     -74.56150000
C      -41.58000000     -33.80700000     -73.71200000
H      -40.91490000     -34.55070000     -71.83370000
H      -44.87780000     -35.73830000     -72.95900000
H      -42.71160000     -32.96050000     -75.47710000
H      -40.56920000     -33.33130000     -73.76410000
C      -45.01180000     -34.39800000     -75.32620000
H      -45.29570000     -35.41480000     -75.45490000
H      -44.73480000     -33.93980000     -76.31280000
C      -42.90270000     -36.16640000     -71.16270000
H      -43.25330000     -37.23730000     -71.25530000
H      -41.89860000     -36.29400000     -70.77690000
S      -46.37080000     -33.45490000     -74.55050000
S      -44.11310000     -35.50410000     -69.84490000
C      -45.69780000     -31.83390000     -73.71910000
H      -44.79500000     -31.46090000     -74.25340000
H      -46.57510000     -31.13450000     -73.95550000
C      -43.13540000     -34.13990000     -69.12640000
H      -42.08160000     -34.14490000     -69.47290000
H      -43.12930000     -34.25490000     -68.07240000
C      -43.90300000     -32.75550000     -69.46110000
H      -43.31410000     -32.00990000     -68.88600000
H      -43.83880000     -32.46370000     -70.49160000
C      -45.39970000     -31.89040000     -72.25020000
H      -44.69200000     -31.12490000     -71.98850000
H      -44.79910000     -32.76500000     -72.00820000
C      -46.49490000     -31.81680000     -71.26320000
C      -47.81400000     -31.50620000     -71.57130000
C      -46.40090000     -32.16550000     -69.83580000
H      -48.29810000     -31.08920000     -72.44580000
C      -47.67180000     -32.13100000     -69.15970000
C      -45.37300000     -32.60810000     -69.00010000
C      -45.76000000     -32.92970000     -67.73190000
S      -48.93140000     -31.54470000     -70.18850000
S      -47.57350000     -32.71270000     -67.52290000
H      -45.09150000     -33.30100000     -66.96170000
