40
Properties=species:S:1:pos:R:3 #=T CELL(abcABC):=T 1.889726e+02=T 90.00000=T Traj:=T positionsangstrom=T Step:=T 0=T Bead:=T pbc="F F F"
C      -41.78840000     -34.48150000     -72.81570000
C      -42.81730000     -35.33680000     -72.40920000
C      -43.92970000     -35.49110000     -73.22060000
C      -44.19080000     -34.61490000     -74.25100000
C      -43.19510000     -33.68940000     -74.57670000
C      -42.06150000     -33.57110000     -73.77830000
H      -40.89260000     -34.30530000     -72.26890000
H      -44.65640000     -36.17320000     -73.06020000
H      -43.24150000     -32.98250000     -75.36350000
H      -41.37350000     -32.80310000     -74.13080000
C      -45.36800000     -34.75350000     -75.14140000
H      -45.81670000     -35.68190000     -75.28290000
H      -45.02040000     -34.27150000     -76.08320000
C      -42.75860000     -36.35780000     -71.26180000
H      -43.06250000     -37.30480000     -71.60400000
H      -41.70920000     -36.43410000     -70.91200000
S      -46.92640000     -33.67950000     -74.51330000
S      -43.94930000     -35.78190000     -69.90970000
C      -46.15950000     -32.10430000     -73.90830000
H      -45.29520000     -31.93240000     -74.52390000
H      -46.93450000     -31.33230000     -74.02110000
C      -43.15740000     -34.36150000     -69.18630000
H      -42.16140000     -34.43430000     -69.56300000
H      -43.10460000     -34.40900000     -68.14130000
C      -43.66200000     -32.88610000     -69.58100000
H      -43.11210000     -32.15910000     -68.96860000
H      -43.55340000     -32.63740000     -70.65530000
C      -45.59900000     -32.14900000     -72.46890000
H      -44.80110000     -31.43270000     -72.50720000
H      -45.12940000     -33.12050000     -72.29290000
C      -46.55500000     -31.87230000     -71.27020000
C      -47.77560000     -31.33300000     -71.42380000
C      -46.18940000     -32.12600000     -69.85530000
H      -48.26760000     -31.02740000     -72.30670000
C      -47.31530000     -31.78970000     -69.12090000
C      -45.07010000     -32.64820000     -69.13960000
C      -45.42760000     -32.75600000     -67.82960000
S      -48.67250000     -31.18900000     -69.92560000
S      -47.07840000     -32.18560000     -67.42220000
H      -44.72620000     -33.09330000     -67.03320000
