40
Properties=species:S:1:pos:R:3 #=T CELL(abcABC):=T 1.889726e+02=T 90.00000=T Traj:=T positionsangstrom=T Step:=T 0=T Bead:=T pbc="F F F"
C      -46.10250000     -34.95830000     -74.71700000
C      -44.84010000     -34.27330000     -74.65080000
C      -44.77250000     -32.90710000     -74.60820000
C      -45.91460000     -32.09490000     -74.59910000
C      -47.17870000     -32.75220000     -74.71930000
C      -47.25480000     -34.21170000     -74.71250000
H      -46.23640000     -36.04070000     -74.72450000
H      -43.77280000     -32.47250000     -74.56640000
H      -48.08620000     -32.19990000     -74.93470000
H      -48.17450000     -34.66810000     -74.91160000
C      -45.75130000     -30.66280000     -74.39970000
H      -46.64130000     -30.07420000     -74.64940000
H      -44.98980000     -30.14800000     -75.08250000
C      -43.54530000     -35.00810000     -74.68370000
H      -43.81840000     -36.11430000     -74.74650000
H      -42.81950000     -34.83250000     -75.47880000
S      -44.95750000     -30.25180000     -72.76150000
S      -42.55460000     -34.72240000     -73.18690000
C      -45.97410000     -31.32170000     -71.57670000
H      -46.96910000     -30.76970000     -71.33550000
H      -46.24840000     -32.33390000     -71.96250000
C      -43.63860000     -35.31140000     -71.84510000
H      -43.29470000     -36.21560000     -71.39470000
H      -44.64760000     -35.63880000     -72.20530000
C      -43.74320000     -34.24670000     -70.71140000
H      -42.68910000     -34.15670000     -70.35110000
H      -43.93810000     -33.30190000     -71.24150000
C      -45.15440000     -31.28730000     -70.24170000
H      -45.13070000     -30.25370000     -69.85190000
H      -44.08720000     -31.59350000     -70.41040000
C      -45.79760000     -32.15210000     -69.10800000
C      -46.57130000     -31.62170000     -68.11780000
C      -45.56550000     -33.59430000     -68.94490000
H      -46.94000000     -30.59950000     -68.09680000
C      -46.20010000     -34.05920000     -67.79820000
C      -44.74160000     -34.55850000     -69.63670000
C      -44.91270000     -35.85170000     -69.07060000
S      -47.10720000     -32.85850000     -66.89660000
S      -45.89190000     -35.77660000     -67.63010000
H      -44.48110000     -36.79260000     -69.40480000
