40
Properties=species:S:1:pos:R:3 #=T CELL(abcABC):=T 1.889726e+02=T 90.00000=T Traj:=T positionsangstrom=T Step:=T 0=T Bead:=T pbc="F F F"
C      -45.90200000     -35.09000000     -74.95730000
C      -44.67850000     -34.38190000     -74.87290000
C      -44.71040000     -32.99030000     -74.57230000
C      -45.91860000     -32.28430000     -74.51430000
C      -47.15400000     -33.01420000     -74.58090000
C      -47.14660000     -34.37150000     -74.90210000
H      -45.94300000     -36.17980000     -75.18290000
H      -43.73800000     -32.43530000     -74.36830000
H      -48.09290000     -32.47010000     -74.33170000
H      -48.16510000     -34.83420000     -74.84300000
C      -45.97090000     -30.80790000     -74.26540000
H      -46.97310000     -30.44360000     -74.45880000
H      -45.26510000     -30.33210000     -74.92160000
C      -43.33280000     -35.06100000     -74.88670000
H      -43.34940000     -36.14150000     -75.08030000
H      -42.63730000     -34.71000000     -75.70710000
S      -45.50080000     -30.29040000     -72.59040000
S      -42.40770000     -34.69390000     -73.31020000
C      -46.33030000     -31.42410000     -71.43120000
H      -47.44340000     -31.39910000     -71.40630000
H      -46.07280000     -32.48940000     -71.83770000
C      -43.69440000     -34.87320000     -71.97490000
H      -43.34630000     -35.79550000     -71.46070000
H      -44.61230000     -35.02070000     -72.45520000
C      -43.75520000     -33.80740000     -70.80360000
H      -42.71050000     -33.71920000     -70.45390000
H      -44.09200000     -32.79220000     -71.22320000
C      -45.70930000     -31.04990000     -70.09370000
H      -46.13540000     -30.11590000     -69.72410000
H      -44.64270000     -30.99170000     -70.26380000
C      -46.06420000     -32.10620000     -69.04750000
C      -46.92030000     -31.80630000     -68.04910000
C      -45.55090000     -33.44290000     -68.93910000
H      -47.42950000     -30.84990000     -67.85900000
C      -46.06500000     -34.10350000     -67.83930000
C      -44.55900000     -34.25300000     -69.63050000
C      -44.51630000     -35.56350000     -69.17570000
S      -47.11480000     -33.12180000     -66.82530000
S      -45.32030000     -35.70650000     -67.60590000
H      -43.84160000     -36.28440000     -69.62090000
