40
Properties=species:S:1:pos:R:3 #=T CELL(abcABC):=T 1.889726e+02=T 90.00000=T Traj:=T positionsangstrom=T Step:=T 0=T Bead:=T pbc="F F F"
C      -45.62580000     -35.02140000     -75.13860000
C      -44.62430000     -34.11740000     -74.78080000
C      -45.01300000     -32.75550000     -74.57430000
C      -46.35810000     -32.37130000     -74.53580000
C      -47.35160000     -33.30360000     -74.81370000
C      -46.98450000     -34.62370000     -75.12420000
H      -45.39050000     -36.05360000     -75.34700000
H      -44.30710000     -31.97280000     -74.49450000
H      -48.43710000     -33.10920000     -74.70350000
H      -47.72340000     -35.34720000     -75.35580000
C      -46.77180000     -30.95260000     -74.18130000
H      -47.81420000     -30.84260000     -73.97640000
H      -46.53660000     -30.26920000     -74.98590000
C      -43.18400000     -34.63100000     -74.85090000
H      -43.26720000     -35.69560000     -75.18600000
H      -42.63740000     -34.00910000     -75.54740000
S      -45.86180000     -30.21830000     -72.77740000
S      -42.27050000     -34.57810000     -73.20070000
C      -46.59550000     -31.15880000     -71.33980000
H      -47.63440000     -30.77450000     -71.12730000
H      -46.52180000     -32.23220000     -71.61480000
C      -43.48300000     -34.95770000     -71.94100000
H      -43.20830000     -35.87040000     -71.37140000
H      -44.52400000     -35.19060000     -72.41510000
C      -43.69980000     -33.81100000     -70.88740000
H      -42.73200000     -33.33400000     -70.64610000
H      -44.30530000     -33.07960000     -71.31460000
C      -45.70220000     -31.11210000     -70.09670000
H      -45.65960000     -30.07950000     -69.71250000
H      -44.68320000     -31.26150000     -70.35370000
C      -46.06050000     -32.14790000     -69.02350000
C      -46.98540000     -32.03830000     -68.04630000
C      -45.40580000     -33.50100000     -68.92370000
H      -47.58220000     -31.17410000     -67.93770000
C      -45.87200000     -34.19510000     -67.79720000
C      -44.34810000     -34.25430000     -69.58330000
C      -44.03620000     -35.40670000     -68.83600000
S      -47.10020000     -33.37120000     -66.89870000
S      -45.01040000     -35.68970000     -67.47970000
H      -43.26570000     -36.14030000     -69.06340000
