40
Properties=species:S:1:pos:R:3 #=T CELL(abcABC):=T 1.889726e+02=T 90.00000=T Traj:=T positionsangstrom=T Step:=T 0=T Bead:=T pbc="F F F"
C      -45.32770000     -34.91150000     -75.01020000
C      -44.68500000     -33.66490000     -74.93150000
C      -45.43310000     -32.44420000     -74.81720000
C      -46.84250000     -32.53020000     -74.62630000
C      -47.47390000     -33.80180000     -74.67670000
C      -46.75290000     -34.94440000     -75.01320000
H      -44.75680000     -35.81180000     -75.20430000
H      -44.97790000     -31.46650000     -74.64090000
H      -48.58280000     -33.90600000     -74.60540000
H      -47.37490000     -35.94140000     -75.18990000
C      -47.62730000     -31.30480000     -74.28530000
H      -48.69270000     -31.60460000     -74.25620000
H      -47.49570000     -30.59080000     -75.05790000
C      -43.18550000     -33.60520000     -74.80890000
H      -42.71380000     -34.56320000     -75.03640000
H      -42.80670000     -32.96860000     -75.55530000
S      -47.06550000     -30.70040000     -72.63330000
S      -42.55640000     -33.03400000     -73.20070000
C      -46.70200000     -32.18150000     -71.56560000
H      -47.63530000     -32.63220000     -71.21050000
H      -46.20640000     -32.92180000     -72.15590000
C      -43.54670000     -33.90310000     -71.86800000
H      -43.42910000     -34.99380000     -71.99280000
H      -44.60670000     -33.56490000     -71.92650000
C      -42.92910000     -33.52040000     -70.53180000
H      -41.92670000     -33.77360000     -70.51120000
H      -43.02030000     -32.47530000     -70.34740000
C      -45.93410000     -31.73890000     -70.30460000
H      -46.33550000     -30.78220000     -70.06260000
H      -44.85100000     -31.47420000     -70.55810000
C      -46.00840000     -32.61420000     -69.12690000
C      -47.09370000     -32.74410000     -68.30970000
C      -44.95960000     -33.63190000     -68.81240000
H      -47.91580000     -32.00460000     -68.17730000
C      -45.30440000     -34.40140000     -67.70070000
C      -43.70930000     -34.14090000     -69.40760000
C      -43.27910000     -35.28860000     -68.82080000
S      -46.82070000     -33.91240000     -67.00760000
S      -44.30550000     -35.80200000     -67.44500000
H      -42.40330000     -35.89230000     -69.18540000
