40
Properties=species:S:1:pos:R:3 #=T CELL(abcABC):=T 1.889726e+02=T 90.00000=T Traj:=T positionsangstrom=T Step:=T 0=T Bead:=T pbc="F F F"
C      -45.50620000     -35.08600000     -75.11220000
C      -44.64860000     -34.07420000     -74.73050000
C      -45.13210000     -32.78320000     -74.46180000
C      -46.52520000     -32.50020000     -74.61130000
C      -47.35780000     -33.57060000     -75.01430000
C      -46.85480000     -34.85310000     -75.25450000
H      -45.17320000     -36.05980000     -75.40530000
H      -44.35500000     -32.12040000     -74.17590000
H      -48.39160000     -33.26550000     -75.26010000
H      -47.54110000     -35.53450000     -75.86670000
C      -47.04410000     -31.11510000     -74.30370000
H      -48.11490000     -31.10500000     -74.50670000
H      -46.47810000     -30.38290000     -74.93120000
C      -43.13010000     -34.22670000     -74.70590000
H      -42.92930000     -35.26290000     -74.90530000
H      -42.66800000     -33.57620000     -75.40010000
S      -46.61130000     -30.43610000     -72.59290000
S      -42.35670000     -33.81110000     -73.14640000
C      -46.31170000     -31.86430000     -71.47550000
H      -47.28310000     -32.19480000     -71.01480000
H      -45.82960000     -32.67340000     -71.95960000
C      -43.52750000     -34.47400000     -71.75980000
H      -43.36680000     -35.50490000     -71.67510000
H      -44.56260000     -34.21770000     -72.03720000
C      -43.07340000     -33.78530000     -70.45290000
H      -42.09960000     -34.22640000     -70.19250000
H      -42.92480000     -32.68340000     -70.62540000
C      -45.56100000     -31.38210000     -70.27660000
H      -45.99350000     -30.43390000     -69.95340000
H      -44.52670000     -31.18160000     -70.50020000
C      -45.79540000     -32.27990000     -69.10120000
C      -46.84260000     -32.04000000     -68.23110000
C      -45.13960000     -33.50340000     -68.84230000
H      -47.34350000     -31.09730000     -68.18170000
C      -45.76670000     -34.23530000     -67.84670000
C      -43.98630000     -34.21030000     -69.34960000
C      -43.87830000     -35.48780000     -68.80920000
S      -47.04080000     -33.33580000     -67.06540000
S      -45.10080000     -35.81750000     -67.58560000
H      -43.15040000     -36.19760000     -69.09520000
