40
Properties=species:S:1:pos:R:3 #=T CELL(abcABC):=T 1.889726e+02=T 90.00000=T Traj:=T positionsangstrom=T Step:=T 0=T Bead:=T pbc="F F F"
C      -45.30680000     -34.93860000     -75.03180000
C      -44.69890000     -33.67480000     -74.77410000
C      -45.45050000     -32.53390000     -74.52680000
C      -46.87740000     -32.57470000     -74.51650000
C      -47.51450000     -33.86500000     -74.77320000
C      -46.68160000     -35.03190000     -74.97240000
H      -44.80050000     -35.88080000     -75.17890000
H      -44.92190000     -31.57110000     -74.41530000
H      -48.60620000     -33.87490000     -74.88320000
H      -47.21010000     -35.90070000     -75.20170000
C      -47.74630000     -31.41350000     -74.15530000
H      -48.78850000     -31.62100000     -74.29130000
H      -47.49690000     -30.57870000     -74.76110000
C      -43.13510000     -33.63640000     -74.79890000
H      -42.80910000     -34.67210000     -74.87220000
H      -42.61550000     -33.05790000     -75.61170000
S      -47.57230000     -30.68760000     -72.43710000
S      -42.27950000     -32.89610000     -73.39260000
C      -47.38110000     -32.14050000     -71.40340000
H      -48.30940000     -32.39120000     -70.86310000
H      -47.21830000     -33.00530000     -72.01250000
C      -42.94370000     -33.96270000     -71.94240000
H      -42.32030000     -34.89300000     -71.91170000
H      -43.98850000     -34.23310000     -72.16140000
C      -42.82190000     -33.19700000     -70.57490000
H      -41.78180000     -33.20570000     -70.32150000
H      -43.12850000     -32.17350000     -70.71350000
C      -46.25370000     -31.84940000     -70.34440000
H      -46.43590000     -30.80790000     -69.95760000
H      -45.38420000     -31.83470000     -70.95650000
C      -46.14200000     -32.84530000     -69.23850000
C      -47.24110000     -33.08660000     -68.46570000
C      -44.96310000     -33.64450000     -68.87780000
H      -48.23060000     -32.69370000     -68.58180000
C      -45.30620000     -34.47880000     -67.81480000
C      -43.61590000     -33.93000000     -69.42220000
C      -42.98040000     -34.84420000     -68.62760000
S      -46.88350000     -34.30580000     -67.26900000
S      -43.90420000     -35.45340000     -67.32940000
H      -41.97720000     -35.05390000     -68.72860000
