40
Properties=species:S:1:pos:R:3 #=T CELL(abcABC):=T 1.889726e+02=T 90.00000=T Traj:=T positionsangstrom=T Step:=T 0=T Bead:=T pbc="F F F"
C      -45.42050000     -35.14720000     -75.19700000
C      -44.65220000     -34.04980000     -74.73470000
C      -45.34240000     -32.88850000     -74.36620000
C      -46.74160000     -32.78450000     -74.43510000
C      -47.50320000     -33.86990000     -74.93710000
C      -46.81050000     -35.02370000     -75.38620000
H      -44.93690000     -36.03340000     -75.59640000
H      -44.87230000     -31.98230000     -73.94780000
H      -48.56580000     -33.75770000     -75.08510000
H      -47.48590000     -35.75400000     -75.64240000
C      -47.40420000     -31.46970000     -74.03340000
H      -48.33980000     -31.65950000     -73.50200000
H      -47.71880000     -30.83840000     -74.84230000
C      -43.10560000     -34.19050000     -74.64210000
H      -42.80230000     -35.18130000     -74.52100000
H      -42.64790000     -33.67350000     -75.53030000
S      -46.48230000     -30.37440000     -72.85630000
S      -42.35890000     -33.36600000     -73.15350000
C      -46.67880000     -31.51320000     -71.46820000
H      -47.69540000     -31.29520000     -71.16570000
H      -46.69620000     -32.58040000     -71.78990000
C      -43.51260000     -34.14470000     -71.88580000
H      -43.55490000     -35.31910000     -71.97740000
H      -44.52240000     -33.86330000     -72.17790000
C      -43.02010000     -33.64180000     -70.50600000
H      -42.05650000     -34.06050000     -70.32680000
H      -42.92500000     -32.57640000     -70.51290000
C      -45.65600000     -31.36770000     -70.25260000
H      -45.79510000     -30.34700000     -69.85020000
H      -44.63600000     -31.45720000     -70.53940000
C      -45.90210000     -32.37970000     -69.13570000
C      -46.85740000     -32.21230000     -68.16110000
C      -45.08950000     -33.54810000     -68.83150000
H      -47.69840000     -31.53030000     -68.23760000
C      -45.63690000     -34.28560000     -67.79050000
C      -43.88760000     -34.20580000     -69.37390000
C      -43.69130000     -35.45090000     -68.79530000
S      -46.95560000     -33.49750000     -66.97410000
S      -44.90510000     -35.88940000     -67.60830000
H      -42.84490000     -36.13090000     -68.87160000
