40
Properties=species:S:1:pos:R:3 #=T CELL(abcABC):=T 1.889726e+02=T 90.00000=T Traj:=T positionsangstrom=T Step:=T 0=T Bead:=T pbc="F F F"
C      -45.32350000     -34.91820000     -74.88200000
C      -44.75270000     -33.67750000     -74.65650000
C      -45.46100000     -32.47740000     -74.54780000
C      -46.85270000     -32.58260000     -74.59840000
C      -47.50900000     -33.82450000     -74.85600000
C      -46.68000000     -34.98430000     -74.99100000
H      -44.73570000     -35.77140000     -75.00440000
H      -44.88640000     -31.51280000     -74.37870000
H      -48.59500000     -33.82060000     -74.94820000
H      -47.14300000     -36.01200000     -75.10000000
C      -47.64180000     -31.37600000     -74.39970000
H      -48.74580000     -31.50690000     -74.45540000
H      -47.41350000     -30.56530000     -75.17050000
C      -43.20910000     -33.59160000     -74.82070000
H      -42.77010000     -34.54750000     -75.10550000
H      -43.00820000     -32.74120000     -75.57670000
S      -47.29470000     -30.58240000     -72.70460000
S      -42.41920000     -32.99380000     -73.17840000
C      -47.01990000     -32.09720000     -71.48060000
H      -48.01060000     -32.39470000     -71.18550000
H      -46.53680000     -32.92850000     -72.13140000
C      -43.29930000     -33.99640000     -71.98220000
H      -42.95850000     -35.02700000     -71.93970000
H      -44.35200000     -34.08310000     -72.21380000
C      -43.10020000     -33.36400000     -70.58850000
H      -41.97570000     -33.16500000     -70.37920000
H      -43.49480000     -32.31830000     -70.50770000
C      -46.11440000     -31.75230000     -70.31490000
H      -46.40090000     -30.76400000     -69.92600000
H      -45.09390000     -31.64400000     -70.65190000
C      -46.07560000     -32.78400000     -69.22350000
C      -47.06000000     -32.80680000     -68.27350000
C      -45.05300000     -33.83920000     -68.98760000
H      -48.02030000     -32.34740000     -68.27000000
C      -45.36460000     -34.56610000     -67.86190000
C      -43.70590000     -34.11070000     -69.44080000
C      -43.05330000     -35.03560000     -68.70230000
S      -46.81120000     -34.05540000     -67.06100000
S      -44.02730000     -35.68680000     -67.33940000
H      -42.08190000     -35.44870000     -68.94530000
