40
Properties=species:S:1:pos:R:3 #=T CELL(abcABC):=T 1.889726e+02=T 90.00000=T Traj:=T positionsangstrom=T Step:=T 0=T Bead:=T pbc="F F F"
C      -46.49460000     -37.11300000     -73.94350000
C      -45.47860000     -36.19390000     -73.83720000
C      -44.66910000     -36.04160000     -72.66110000
C      -45.01310000     -36.70150000     -71.46720000
C      -46.13780000     -37.60900000     -71.52240000
C      -46.81380000     -37.87020000     -72.72210000
H      -47.05410000     -37.38320000     -74.89510000
H      -43.80930000     -35.49150000     -72.67040000
H      -46.38410000     -38.14800000     -70.61720000
H      -47.54410000     -38.66720000     -72.74670000
C      -44.13600000     -36.49440000     -70.27770000
H      -43.44060000     -35.64420000     -70.53000000
H      -43.44760000     -37.29360000     -70.10920000
C      -45.04780000     -35.45710000     -75.08610000
H      -44.21130000     -36.08310000     -75.49900000
H      -45.79730000     -35.38700000     -75.84720000
S      -45.08570000     -36.20130000     -68.66700000
S      -44.21610000     -33.89170000     -74.87060000
C      -45.92130000     -34.55340000     -69.12700000
H      -46.30840000     -34.70710000     -70.11340000
H      -46.66770000     -34.43320000     -68.36080000
C      -45.06570000     -33.01710000     -73.29050000
H      -45.60860000     -33.74680000     -72.76990000
H      -45.73990000     -32.28210000     -73.74380000
C      -44.09840000     -32.35670000     -72.34770000
H      -43.76250000     -33.05000000     -71.59330000
H      -43.17930000     -32.01870000     -72.96830000
C      -44.82930000     -33.42770000     -69.12040000
H      -44.12690000     -33.71020000     -69.86580000
H      -44.28380000     -33.64290000     -68.21840000
C      -45.40310000     -32.03020000     -69.28870000
C      -46.11300000     -31.51750000     -68.21900000
C      -45.27760000     -31.11470000     -70.38670000
H      -46.11570000     -31.97590000     -67.21700000
C      -45.70880000     -29.81630000     -70.07370000
C      -44.66890000     -31.12550000     -71.69930000
C      -44.72110000     -29.92690000     -72.38510000
S      -46.55420000     -29.76250000     -68.51400000
S      -45.47070000     -28.65840000     -71.38030000
H      -44.10300000     -29.68110000     -73.18880000
