40
Properties=species:S:1:pos:R:3 #=T CELL(abcABC):=T 1.889726e+02=T 90.00000=T Traj:=T positionsangstrom=T Step:=T 0=T Bead:=T pbc="F F F"
C      -46.55550000     -34.36510000     -69.03280000
C      -47.09410000     -34.63640000     -70.30090000
C      -46.35570000     -35.24650000     -71.32560000
C      -44.94750000     -35.45560000     -71.10420000
C      -44.40690000     -35.11820000     -69.86360000
C      -45.19720000     -34.58730000     -68.87360000
H      -47.13430000     -33.76710000     -68.35370000
H      -46.81840000     -35.53220000     -72.26470000
H      -43.35630000     -35.05580000     -69.62790000
H      -44.79210000     -34.30080000     -67.95700000
C      -43.99250000     -35.98820000     -72.16640000
H      -43.65510000     -37.00110000     -71.93990000
H      -43.05100000     -35.46510000     -72.34410000
C      -48.53650000     -34.33880000     -70.58190000
H      -48.59860000     -34.35250000     -71.64370000
H      -49.28420000     -35.03140000     -70.16920000
S      -44.72910000     -36.08120000     -73.93760000
S      -48.89550000     -32.65120000     -70.08900000
C      -44.15130000     -34.50310000     -74.74620000
H      -43.02250000     -34.61640000     -74.92220000
H      -44.63960000     -34.57260000     -75.75960000
C      -48.49850000     -31.62980000     -71.56520000
H      -48.52890000     -30.64710000     -71.17820000
H      -49.28510000     -31.64130000     -72.38750000
C      -47.10930000     -32.01710000     -72.10650000
H      -47.22600000     -33.07260000     -72.49540000
H      -46.88520000     -31.59210000     -73.04120000
C      -44.62260000     -33.29930000     -74.04900000
H      -45.75960000     -33.47330000     -73.78390000
H      -44.71900000     -32.49270000     -74.81350000
C      -43.88120000     -32.80870000     -72.78240000
C      -42.54000000     -32.95710000     -72.68630000
C      -44.53260000     -32.11830000     -71.62030000
H      -41.95170000     -33.09950000     -73.59210000
C      -43.64670000     -31.84990000     -70.59440000
C      -45.90520000     -31.78230000     -71.24310000
C      -45.93240000     -31.21890000     -70.01380000
S      -41.98970000     -32.24990000     -71.11840000
S      -44.40880000     -31.21790000     -69.18450000
H      -46.84940000     -31.00500000     -69.47840000
