40
Properties=species:S:1:pos:R:3 #=T CELL(abcABC):=T 1.889726e+02=T 90.00000=T Traj:=T positionsangstrom=T Step:=T 0=T Bead:=T pbc="F F F"
C      -48.95520000     -32.49420000     -69.64570000
C      -47.67540000     -32.34830000     -69.09760000
C      -46.81010000     -31.36400000     -69.56780000
C      -47.27060000     -30.53630000     -70.58150000
C      -48.56610000     -30.67440000     -71.11020000
C      -49.40250000     -31.68000000     -70.68180000
H      -49.57160000     -33.31490000     -69.23690000
H      -45.81170000     -31.19880000     -69.09160000
H      -48.81820000     -30.11700000     -71.98690000
H      -50.35680000     -31.84160000     -71.05980000
C      -46.36290000     -29.44930000     -71.02410000
H      -45.65620000     -29.18060000     -70.29070000
H      -46.87300000     -28.50620000     -71.21610000
C      -47.33320000     -33.20080000     -67.85870000
H      -46.57620000     -32.85280000     -67.17840000
H      -48.18610000     -33.09170000     -67.20270000
S      -45.35420000     -29.71860000     -72.69210000
S      -47.12500000     -34.93680000     -68.35350000
C      -45.08230000     -31.47380000     -72.67180000
H      -46.06280000     -32.04680000     -72.51020000
H      -44.66660000     -31.67460000     -73.61250000
C      -45.57760000     -34.94600000     -69.36000000
H      -45.18660000     -35.96380000     -69.10510000
H      -44.88690000     -34.12970000     -69.02190000
C      -45.95530000     -34.95070000     -70.80670000
H      -46.93330000     -35.47680000     -70.89700000
H      -46.19310000     -33.91310000     -71.18130000
C      -44.05650000     -32.12760000     -71.60360000
H      -44.54370000     -32.41880000     -70.66670000
H      -43.33380000     -31.41340000     -71.27260000
C      -43.30680000     -33.28610000     -72.16140000
C      -42.12570000     -33.11130000     -72.84030000
C      -43.68730000     -34.68350000     -72.15660000
H      -41.41880000     -32.29260000     -72.97890000
C      -42.86620000     -35.52440000     -72.91550000
C      -44.83320000     -35.51310000     -71.72160000
C      -44.87950000     -36.76380000     -72.29960000
S      -41.47300000     -34.64950000     -73.51600000
S      -43.34800000     -37.18400000     -73.00970000
H      -45.59530000     -37.53990000     -72.18480000
