40
Properties=species:S:1:pos:R:3 #=T CELL(abcABC):=T 1.889726e+02=T 90.00000=T Traj:=T positionsangstrom=T Step:=T 0=T Bead:=T pbc="F F F"
C      -44.98320000     -34.80740000     -74.29410000
C      -44.68420000     -33.44580000     -74.58510000
C      -45.76020000     -32.53440000     -74.48090000
C      -47.07020000     -32.94410000     -74.20510000
C      -47.31820000     -34.27480000     -74.17510000
C      -46.32910000     -35.20890000     -74.17530000
H      -44.18930000     -35.57170000     -74.34440000
H      -45.43290000     -31.47570000     -74.51080000
H      -48.30710000     -34.60620000     -73.91840000
H      -46.62480000     -36.28640000     -74.06620000
C      -48.16650000     -31.96510000     -74.01150000
H      -49.13200000     -32.45700000     -73.85780000
H      -48.36130000     -31.33850000     -74.94850000
C      -43.27550000     -33.09220000     -74.73530000
H      -42.65580000     -34.03680000     -74.80730000
H      -43.06070000     -32.26710000     -75.46040000
S      -47.71500000     -30.86450000     -72.64570000
S      -42.64590000     -32.08670000     -73.16670000
C      -47.68160000     -32.09080000     -71.15710000
H      -47.80610000     -31.36790000     -70.33110000
H      -48.45210000     -32.87680000     -71.28770000
C      -42.97760000     -33.17210000     -71.74920000
H      -42.22940000     -33.97160000     -71.82850000
H      -43.99220000     -33.65350000     -71.94020000
C      -42.90670000     -32.42290000     -70.41170000
H      -41.89830000     -32.07020000     -70.20590000
H      -43.49800000     -31.46580000     -70.55460000
C      -46.33650000     -32.81010000     -71.07170000
H      -45.49720000     -32.07580000     -71.04710000
H      -46.19430000     -33.42830000     -71.97050000
C      -46.15190000     -33.64750000     -69.90710000
C      -47.14190000     -34.48840000     -69.43890000
C      -44.91740000     -33.71780000     -69.14760000
H      -48.09000000     -34.65220000     -69.88780000
C      -45.07200000     -34.62070000     -68.09660000
C      -43.51940000     -33.27640000     -69.25570000
C      -42.71740000     -33.75160000     -68.25790000
S      -46.63910000     -35.44270000     -68.04570000
S      -43.62540000     -34.72410000     -67.05370000
H      -41.65440000     -33.57100000     -68.23090000
