40
Properties=species:S:1:pos:R:3 #=T CELL(abcABC):=T 1.889726e+02=T 90.00000=T Traj:=T positionsangstrom=T Step:=T 0=T Bead:=T pbc="F F F"
C      -46.61580000     -36.93230000     -73.84980000
C      -45.44420000     -36.11500000     -73.76540000
C      -44.59770000     -36.13280000     -72.67630000
C      -44.93390000     -36.94710000     -71.53940000
C      -46.09270000     -37.70780000     -71.56920000
C      -46.84810000     -37.79930000     -72.80080000
H      -47.18420000     -36.87350000     -74.83280000
H      -43.72840000     -35.47350000     -72.70410000
H      -46.33740000     -38.37480000     -70.70880000
H      -47.76770000     -38.41700000     -72.81210000
C      -44.06050000     -36.82410000     -70.33090000
H      -43.20230000     -36.18810000     -70.52480000
H      -43.69140000     -37.80420000     -69.94200000
C      -45.22460000     -35.21580000     -75.00130000
H      -44.84000000     -35.76450000     -75.93440000
H      -46.18980000     -34.89400000     -75.36740000
S      -44.96880000     -36.18150000     -68.81260000
S      -44.06660000     -33.79750000     -74.70770000
C      -45.83530000     -34.55690000     -69.07740000
H      -46.66670000     -34.68350000     -69.77600000
H      -46.38560000     -34.39170000     -68.10370000
C      -44.94800000     -32.81900000     -73.33360000
H      -45.70020000     -33.49440000     -72.84170000
H      -45.51300000     -31.98540000     -73.76210000
C      -43.92080000     -32.21140000     -72.37540000
H      -43.47190000     -32.96910000     -71.78070000
H      -43.12120000     -31.73460000     -72.94340000
C      -44.82200000     -33.47600000     -69.25530000
H      -44.18220000     -33.53680000     -70.20760000
H      -44.06880000     -33.52290000     -68.43800000
C      -45.47970000     -32.08270000     -69.30240000
C      -46.27820000     -31.53010000     -68.30250000
C      -45.27640000     -31.14740000     -70.38370000
H      -46.56590000     -31.94100000     -67.36400000
C      -45.81290000     -29.89090000     -70.03890000
C      -44.53240000     -31.08980000     -71.61790000
C      -44.65620000     -29.85170000     -72.24720000
S      -46.71430000     -29.88270000     -68.58510000
S      -45.61820000     -28.72380000     -71.31500000
H      -44.25970000     -29.45670000     -73.13700000
