40
Properties=species:S:1:pos:R:3 #=T CELL(abcABC):=T 1.889726e+02=T 90.00000=T Traj:=T positionsangstrom=T Step:=T 0=T Bead:=T pbc="F F F"
C      -45.22910000     -34.88100000     -74.50850000
C      -44.67420000     -33.61070000     -74.53780000
C      -45.60140000     -32.52440000     -74.53910000
C      -46.99920000     -32.68250000     -74.43040000
C      -47.52680000     -33.97020000     -74.22520000
C      -46.66540000     -35.04760000     -74.43070000
H      -44.60600000     -35.74790000     -74.64820000
H      -45.21550000     -31.48120000     -74.56680000
H      -48.57730000     -34.15850000     -74.06510000
H      -47.04250000     -36.11660000     -74.52600000
C      -47.73080000     -31.39170000     -74.26850000
H      -48.74090000     -31.39850000     -74.60920000
H      -47.26380000     -30.60410000     -74.89910000
C      -43.18210000     -33.42780000     -74.74980000
H      -42.67720000     -34.37770000     -74.91040000
H      -42.96690000     -32.79060000     -75.60660000
S      -47.65560000     -30.69340000     -72.55170000
S      -42.23400000     -32.67980000     -73.31840000
C      -47.69610000     -32.06090000     -71.28960000
H      -48.15510000     -31.75200000     -70.39370000
H      -48.30060000     -32.88170000     -71.70360000
C      -42.91150000     -33.56740000     -71.78240000
H      -42.22650000     -34.41410000     -71.66410000
H      -43.85000000     -33.97430000     -72.09620000
C      -43.02100000     -32.71300000     -70.55860000
H      -42.00370000     -32.42610000     -70.18940000
H      -43.52080000     -31.84220000     -70.82070000
C      -46.31100000     -32.59360000     -70.85780000
H      -45.63130000     -31.75130000     -70.62390000
H      -45.85020000     -33.12980000     -71.74010000
C      -46.28040000     -33.46210000     -69.69430000
C      -47.32380000     -34.03200000     -69.01490000
C      -45.00170000     -33.83680000     -69.11350000
H      -48.39700000     -33.79320000     -69.30800000
C      -45.19860000     -34.57290000     -67.93690000
C      -43.59640000     -33.49470000     -69.37160000
C      -42.75650000     -34.07380000     -68.42580000
S      -46.87190000     -34.95670000     -67.57040000
S      -43.61640000     -34.92620000     -67.20680000
H      -41.62080000     -34.04970000     -68.33840000
