40
Properties=species:S:1:pos:R:3 #=T CELL(abcABC):=T 1.889726e+02=T 90.00000=T Traj:=T positionsangstrom=T Step:=T 0=T Bead:=T pbc="F F F"
C      -44.06630000     -33.90520000     -73.76210000
C      -44.32210000     -35.07640000     -73.02770000
C      -45.60280000     -35.26450000     -72.54790000
C      -46.64080000     -34.28140000     -72.74840000
C      -46.34620000     -33.13960000     -73.48600000
C      -45.07100000     -33.00610000     -74.02540000
H      -43.02600000     -33.79370000     -74.09460000
H      -45.81770000     -36.18480000     -72.06510000
H      -47.20040000     -32.49630000     -73.72740000
H      -44.74750000     -32.13740000     -74.62390000
C      -48.04070000     -34.51950000     -72.35540000
H      -48.44580000     -35.41440000     -72.85500000
H      -48.64870000     -33.75650000     -72.92390000
C      -43.15280000     -35.99870000     -72.80690000
H      -43.29160000     -36.97540000     -73.39390000
H      -42.23390000     -35.58890000     -73.18910000
S      -48.53930000     -34.36220000     -70.61040000
S      -43.03200000     -36.58350000     -71.08290000
C      -47.16780000     -34.85760000     -69.49760000
H      -47.54420000     -35.52880000     -68.75080000
H      -46.45750000     -35.46220000     -70.08520000
C      -42.45750000     -34.99590000     -70.33650000
H      -41.77890000     -34.42900000     -70.92950000
H      -41.80920000     -35.37490000     -69.49420000
C      -43.47990000     -34.07550000     -69.80870000
H      -44.46530000     -34.47630000     -69.81700000
H      -43.41260000     -33.87240000     -68.76980000
C      -46.54380000     -33.65370000     -68.70650000
H      -45.70050000     -33.91450000     -68.04180000
H      -47.28950000     -33.33310000     -67.89990000
C      -46.29460000     -32.43860000     -69.53610000
C      -47.24010000     -31.39500000     -69.63600000
C      -45.12140000     -32.14260000     -70.32910000
H      -48.13310000     -31.45720000     -69.08230000
C      -45.18890000     -30.99850000     -71.00650000
C      -43.75770000     -32.71590000     -70.45730000
C      -42.93590000     -32.01670000     -71.35250000
S      -46.74440000     -30.12800000     -70.76720000
S      -43.80910000     -30.60420000     -72.02650000
H      -42.02340000     -32.45680000     -71.82350000
