40
Properties=species:S:1:pos:R:3 #=T CELL(abcABC):=T 1.889726e+02=T 90.00000=T Traj:=T positionsangstrom=T Step:=T 0=T Bead:=T pbc="F F F"
C      -45.07540000     -34.92200000     -74.28910000
C      -44.62710000     -33.58840000     -74.59280000
C      -45.65140000     -32.58870000     -74.55660000
C      -46.97550000     -32.83460000     -74.22080000
C      -47.34350000     -34.14060000     -74.03670000
C      -46.42870000     -35.17530000     -74.06390000
H      -44.36240000     -35.72930000     -74.28840000
H      -45.35320000     -31.56520000     -74.81940000
H      -48.40910000     -34.44650000     -73.94400000
H      -46.69120000     -36.17400000     -73.94390000
C      -47.98910000     -31.68220000     -74.08280000
H      -49.05020000     -32.02020000     -74.11780000
H      -47.90210000     -30.90020000     -74.79690000
C      -43.19850000     -33.15880000     -74.75970000
H      -42.64100000     -33.98880000     -75.14730000
H      -43.05050000     -32.48830000     -75.56450000
S      -47.85400000     -30.77770000     -72.47090000
S      -42.51430000     -32.21600000     -73.25920000
C      -47.51950000     -32.01930000     -71.17270000
H      -47.65790000     -31.41560000     -70.23050000
H      -48.35680000     -32.65430000     -71.09510000
C      -43.08570000     -33.33540000     -71.89440000
H      -42.50580000     -34.23990000     -71.86740000
H      -44.10830000     -33.63570000     -71.95370000
C      -42.82150000     -32.63570000     -70.57870000
H      -41.81420000     -32.46930000     -70.31260000
H      -43.30910000     -31.64670000     -70.61110000
C      -46.22160000     -32.79920000     -71.10910000
H      -45.35810000     -32.07220000     -70.99170000
H      -46.13540000     -33.26150000     -72.06000000
C      -46.10150000     -33.77100000     -70.03430000
C      -47.16800000     -34.39570000     -69.41400000
C      -44.85750000     -34.06110000     -69.29850000
H      -48.17950000     -34.46590000     -69.71970000
C      -45.07760000     -34.82960000     -68.16900000
C      -43.47360000     -33.48330000     -69.40400000
C      -42.83430000     -33.66180000     -68.19360000
S      -46.75030000     -35.22440000     -67.88940000
S      -43.72660000     -34.61490000     -67.01810000
H      -41.86500000     -33.39350000     -67.93900000
