40
Properties=species:S:1:pos:R:3 #=T CELL(abcABC):=T 1.889726e+02=T 90.00000=T Traj:=T positionsangstrom=T Step:=T 0=T Bead:=T pbc="F F F"
C      -44.88090000     -34.09410000     -73.67740000
C      -44.87740000     -35.22030000     -72.85550000
C      -46.12050000     -35.65610000     -72.24070000
C      -47.18770000     -34.79060000     -72.37620000
C      -47.15270000     -33.68020000     -73.18920000
C      -45.99210000     -33.30260000     -73.87340000
H      -43.98800000     -33.74480000     -74.19420000
H      -46.06100000     -36.54090000     -71.61200000
H      -48.12680000     -33.18550000     -73.41050000
H      -45.89680000     -32.36450000     -74.45810000
C      -48.55980000     -35.16950000     -71.64530000
H      -48.48650000     -36.24210000     -71.46780000
H      -49.41570000     -34.89440000     -72.31340000
C      -43.62170000     -36.07020000     -72.71130000
H      -43.86900000     -37.08560000     -73.25210000
H      -42.79820000     -35.63390000     -73.34090000
S      -48.81220000     -34.24040000     -70.06380000
S      -42.85970000     -36.57830000     -71.12590000
C      -47.15880000     -34.38860000     -69.36980000
H      -47.15020000     -35.06680000     -68.52700000
H      -46.36970000     -34.72940000     -70.09200000
C      -42.19760000     -34.95450000     -70.46720000
H      -41.74250000     -34.50620000     -71.34950000
H      -41.30780000     -35.08760000     -69.81430000
C      -43.39990000     -34.14600000     -69.86330000
H      -44.32730000     -34.73900000     -69.85320000
H      -43.22360000     -33.94460000     -68.79320000
C      -46.64410000     -33.01040000     -68.91250000
H      -45.79480000     -33.15300000     -68.23300000
H      -47.35480000     -32.57930000     -68.22890000
C      -46.18170000     -31.99110000     -69.95190000
C      -46.91030000     -30.89780000     -70.28320000
C      -44.85790000     -32.04310000     -70.58920000
H      -47.86870000     -30.61590000     -70.00650000
C      -44.64480000     -30.82160000     -71.28130000
C      -43.62860000     -32.87530000     -70.55050000
C      -42.69490000     -32.27300000     -71.34190000
S      -46.04350000     -29.77450000     -71.29840000
S      -43.07190000     -30.74540000     -72.12560000
H      -41.69350000     -32.56650000     -71.52870000
