40
Properties=species:S:1:pos:R:3 #=T CELL(abcABC):=T 1.889726e+02=T 90.00000=T Traj:=T positionsangstrom=T Step:=T 0=T Bead:=T pbc="F F F"
C      -45.50440000     -33.93640000     -73.84600000
C      -45.43170000     -35.12300000     -73.16880000
C      -46.46980000     -35.45710000     -72.29050000
C      -47.54550000     -34.59370000     -72.08410000
C      -47.51790000     -33.34040000     -72.73720000
C      -46.50120000     -33.02070000     -73.63610000
H      -44.68550000     -33.63600000     -74.54180000
H      -46.39820000     -36.36500000     -71.70250000
H      -48.32170000     -32.60820000     -72.52020000
H      -46.62080000     -32.11440000     -74.16860000
C      -48.54000000     -34.87980000     -70.90780000
H      -48.62890000     -35.89730000     -70.71880000
H      -49.57910000     -34.47460000     -71.13830000
C      -44.07870000     -35.84210000     -73.19470000
H      -44.07250000     -36.72450000     -73.79070000
H      -43.34620000     -35.25060000     -73.73260000
S      -48.04380000     -33.89390000     -69.36470000
S      -43.54240000     -36.36360000     -71.52450000
C      -46.29710000     -34.33010000     -69.06040000
H      -46.26360000     -35.17030000     -68.29460000
H      -45.82250000     -34.60760000     -69.95150000
C      -42.13660000     -35.23660000     -70.87670000
H      -41.51190000     -34.94550000     -71.72000000
H      -41.54190000     -35.87140000     -70.20060000
C      -42.79660000     -34.07730000     -70.15560000
H      -43.63060000     -34.39880000     -69.54920000
H      -41.98090000     -33.68260000     -69.43370000
C      -45.55740000     -33.05740000     -68.36810000
H      -44.57050000     -33.53610000     -68.14500000
H      -46.12600000     -32.80300000     -67.51570000
C      -45.40900000     -32.05690000     -69.47470000
C      -46.43840000     -31.16190000     -69.66970000
C      -44.44210000     -32.12670000     -70.57000000
H      -47.05730000     -30.84060000     -68.83830000
C      -44.75430000     -31.13570000     -71.48170000
C      -43.30730000     -32.93670000     -70.91370000
C      -42.73850000     -32.48290000     -72.07540000
S      -46.15340000     -30.18220000     -71.16880000
S      -43.62080000     -31.14510000     -72.86580000
H      -41.92070000     -32.94910000     -72.61460000
