40
Properties=species:S:1:pos:R:3 #=T CELL(abcABC):=T 1.889726e+02=T 90.00000=T Traj:=T positionsangstrom=T Step:=T 0=T Bead:=T pbc="F F F"
C      -45.10650000     -34.15420000     -73.74030000
C      -45.15120000     -35.23630000     -72.85940000
C      -46.34290000     -35.48310000     -72.15500000
C      -47.39480000     -34.59060000     -72.23050000
C      -47.34250000     -33.43220000     -72.98020000
C      -46.22540000     -33.30200000     -73.84690000
H      -44.18940000     -33.94610000     -74.17690000
H      -46.42900000     -36.29580000     -71.49260000
H      -48.28270000     -32.79380000     -73.00620000
H      -46.14470000     -32.49860000     -74.60230000
C      -48.60910000     -34.96560000     -71.40160000
H      -48.67980000     -35.99920000     -71.12720000
H      -49.53440000     -34.63370000     -71.84930000
C      -43.99820000     -36.19370000     -72.92090000
H      -44.37010000     -37.20380000     -73.19380000
H      -43.27360000     -35.95590000     -73.77140000
S      -48.54390000     -34.04530000     -69.71680000
S      -43.01510000     -36.62080000     -71.40060000
C      -46.83930000     -34.30720000     -69.03700000
H      -46.76480000     -34.99270000     -68.14860000
H      -46.36160000     -34.82900000     -69.88080000
C      -42.23860000     -35.18890000     -70.61470000
H      -41.42460000     -34.75790000     -71.18430000
H      -41.79040000     -35.59360000     -69.70400000
C      -43.29390000     -34.17580000     -70.11060000
H      -44.23650000     -34.71360000     -70.03850000
H      -43.09060000     -33.80740000     -69.08140000
C      -46.06220000     -33.07230000     -68.64220000
H      -45.11890000     -33.42950000     -68.19560000
H      -46.66040000     -32.51850000     -67.89790000
C      -45.74760000     -32.03720000     -69.66960000
C      -46.63310000     -30.99010000     -69.93480000
C      -44.58370000     -31.98510000     -70.54320000
H      -47.53850000     -30.68620000     -69.30310000
C      -44.60430000     -30.89550000     -71.42180000
C      -43.53740000     -32.92630000     -70.87740000
C      -42.73960000     -32.40780000     -71.90260000
S      -45.93930000     -29.78720000     -71.06450000
S      -43.37190000     -30.86870000     -72.58250000
H      -42.06050000     -33.03830000     -72.49510000
