40
Properties=species:S:1:pos:R:3 #=T CELL(abcABC):=T 1.889726e+02=T 90.00000=T Traj:=T positionsangstrom=T Step:=T 0=T Bead:=T pbc="F F F"
C      -44.92060000     -34.18750000     -73.89010000
C      -44.90140000     -35.45360000     -73.24850000
C      -46.03460000     -35.85460000     -72.54110000
C      -47.13730000     -35.00740000     -72.29500000
C      -47.03560000     -33.65990000     -72.81240000
C      -46.00720000     -33.29760000     -73.63480000
H      -43.92340000     -33.87560000     -74.33380000
H      -45.98990000     -36.83850000     -72.02660000
H      -47.82190000     -32.89910000     -72.73670000
H      -45.84610000     -32.28160000     -74.07090000
C      -48.27570000     -35.43660000     -71.34640000
H      -48.02820000     -36.46920000     -70.91080000
H      -49.29760000     -35.56560000     -71.76890000
C      -43.61970000     -36.21710000     -73.03780000
H      -43.65180000     -37.23060000     -73.44790000
H      -42.63700000     -35.75560000     -73.44530000
S      -48.57650000     -34.21950000     -69.89730000
S      -43.44210000     -36.56440000     -71.19530000
C      -46.92010000     -34.23450000     -69.00520000
H      -46.94630000     -34.83620000     -68.09110000
H      -46.22020000     -34.72200000     -69.66530000
C      -42.55060000     -35.03340000     -70.62410000
H      -42.05780000     -34.56020000     -71.52040000
H      -41.72020000     -35.36190000     -69.94890000
C      -43.57550000     -34.06860000     -70.01030000
H      -44.54060000     -34.53200000     -70.10850000
H      -43.39800000     -33.99440000     -68.93710000
C      -46.36100000     -32.83860000     -68.64100000
H      -45.48590000     -32.96490000     -68.01850000
H      -47.13460000     -32.39260000     -67.98790000
C      -46.04160000     -31.90570000     -69.87640000
C      -46.81610000     -30.87370000     -70.25960000
C      -44.73000000     -31.89930000     -70.59170000
H      -47.77780000     -30.69770000     -69.90950000
C      -44.62290000     -30.77720000     -71.39070000
C      -43.58800000     -32.75730000     -70.66610000
C      -42.66550000     -32.19260000     -71.46220000
S      -46.03990000     -29.76840000     -71.34740000
S      -43.11000000     -30.64080000     -72.17730000
H      -41.69180000     -32.63360000     -71.59700000
