40
Properties=species:S:1:pos:R:3 #=T CELL(abcABC):=T 1.889726e+02=T 90.00000=T Traj:=T positionsangstrom=T Step:=T 0=T Bead:=T pbc="F F F"
C      -44.92230000     -34.11920000     -73.67000000
C      -44.90030000     -35.36060000     -73.01110000
C      -46.06280000     -35.77830000     -72.30080000
C      -47.16480000     -34.95940000     -72.17220000
C      -47.15460000     -33.69960000     -72.75960000
C      -46.11430000     -33.34220000     -73.50400000
H      -44.13340000     -33.77330000     -74.27740000
H      -45.95820000     -36.83370000     -71.96930000
H      -47.97020000     -33.04820000     -72.68720000
H      -46.18350000     -32.36150000     -73.92070000
C      -48.38410000     -35.38100000     -71.31920000
H      -48.21130000     -36.27270000     -70.81510000
H      -49.21940000     -35.49070000     -71.94550000
C      -43.75290000     -36.31610000     -73.04720000
H      -44.03750000     -37.23760000     -73.54640000
H      -42.90860000     -35.91000000     -73.65310000
S      -48.62540000     -34.05830000     -70.00120000
S      -43.27800000     -36.77980000     -71.31250000
C      -46.97700000     -34.20070000     -69.13030000
H      -47.18120000     -34.72270000     -68.15420000
H      -46.41830000     -34.88970000     -69.75680000
C      -42.41530000     -35.21350000     -70.64790000
H      -41.69990000     -34.82570000     -71.36160000
H      -41.79520000     -35.57280000     -69.84330000
C      -43.31810000     -34.08630000     -70.02070000
H      -44.24000000     -34.49690000     -69.56290000
H      -42.80040000     -33.71910000     -69.10120000
C      -46.32670000     -32.91080000     -68.78180000
H      -45.49640000     -33.11460000     -68.05740000
H      -46.99540000     -32.37930000     -68.10220000
C      -46.00290000     -31.91780000     -69.90380000
C      -46.76400000     -30.79830000     -70.07910000
C      -44.77910000     -31.94330000     -70.60920000
H      -47.74050000     -30.65550000     -69.64430000
C      -44.62450000     -30.77480000     -71.40250000
C      -43.62510000     -32.77530000     -70.75900000
C      -42.70160000     -32.18070000     -71.59960000
S      -46.00880000     -29.68550000     -71.29850000
S      -43.16820000     -30.63540000     -72.24540000
H      -41.75650000     -32.64550000     -71.81610000
