40
Properties=species:S:1:pos:R:3 #=T CELL(abcABC):=T 1.889726e+02=T 90.00000=T Traj:=T positionsangstrom=T Step:=T 0=T Bead:=T pbc="F F F"
C      -44.82770000     -34.12270000     -73.71390000
C      -44.90980000     -35.36410000     -73.00520000
C      -46.01220000     -35.65300000     -72.23360000
C      -47.19350000     -34.90500000     -72.39500000
C      -47.16490000     -33.72480000     -73.14130000
C      -45.97100000     -33.32460000     -73.77510000
H      -43.90190000     -33.79930000     -74.31820000
H      -45.90220000     -36.54000000     -71.65120000
H      -47.89140000     -32.98660000     -72.95390000
H      -45.93920000     -32.37350000     -74.40930000
C      -48.32170000     -35.35990000     -71.53410000
H      -48.24710000     -36.40510000     -71.31680000
H      -49.30070000     -35.20190000     -71.97100000
C      -43.69250000     -36.23030000     -73.01510000
H      -43.83460000     -37.07430000     -73.66300000
H      -42.90040000     -35.67230000     -73.40910000
S      -48.54440000     -34.37620000     -69.98500000
S      -43.18540000     -36.71630000     -71.29310000
C      -46.93630000     -34.17220000     -69.11760000
H      -47.02130000     -34.84940000     -68.27320000
H      -46.20480000     -34.59510000     -69.84290000
C      -42.53320000     -35.16390000     -70.54080000
H      -41.99640000     -34.67370000     -71.34810000
H      -41.88650000     -35.52890000     -69.77860000
C      -43.44650000     -34.10020000     -69.83610000
H      -44.43850000     -34.44590000     -69.65110000
H      -42.95850000     -33.81320000     -68.85260000
C      -46.58010000     -32.77710000     -68.66310000
H      -45.72680000     -32.97010000     -67.98720000
H      -47.41690000     -32.26390000     -68.17300000
C      -46.07790000     -31.80380000     -69.80050000
C      -46.88930000     -30.77240000     -70.11320000
C      -44.79550000     -31.88240000     -70.53550000
H      -47.68820000     -30.45620000     -69.57680000
C      -44.68160000     -30.74480000     -71.31870000
C      -43.62020000     -32.72070000     -70.54090000
C      -42.68490000     -32.15690000     -71.31600000
S      -46.11710000     -29.80530000     -71.43800000
S      -43.09600000     -30.60700000     -72.16830000
H      -41.70770000     -32.58200000     -71.64230000
