40
Properties=species:S:1:pos:R:3 #=T CELL(abcABC):=T 1.889726e+02=T 90.00000=T Traj:=T positionsangstrom=T Step:=T 0=T Bead:=T pbc="F F F"
C      -42.85460000     -32.72940000     -73.44530000
C      -42.93840000     -31.73640000     -72.49820000
C      -44.05900000     -30.87730000     -72.49920000
C      -45.04270000     -30.91440000     -73.46890000
C      -44.81780000     -31.80330000     -74.51690000
C      -43.79030000     -32.74810000     -74.49670000
H      -41.98630000     -33.39610000     -73.44680000
H      -44.12440000     -30.09830000     -71.72660000
H      -45.64440000     -31.88170000     -75.20700000
H      -43.72390000     -33.41690000     -75.32590000
C      -46.20360000     -30.02620000     -73.45160000
H      -46.88950000     -30.36440000     -74.25100000
H      -45.84870000     -29.00060000     -73.44100000
C      -41.80750000     -31.53770000     -71.56580000
H      -40.92490000     -32.00630000     -72.08610000
H      -41.50770000     -30.51520000     -71.55190000
S      -47.10980000     -30.06320000     -71.82090000
S      -42.14390000     -32.11740000     -69.89540000
C      -47.58510000     -31.83910000     -71.84330000
H      -48.63690000     -31.76690000     -71.94150000
H      -47.15720000     -32.35160000     -72.72460000
C      -43.35040000     -33.39270000     -70.26630000
H      -42.91900000     -34.39210000     -70.59570000
H      -43.96930000     -33.21710000     -71.16070000
C      -44.28100000     -33.85640000     -69.01400000
H      -43.65130000     -33.99870000     -68.13690000
H      -45.03030000     -33.10360000     -68.67590000
C      -46.98320000     -32.48590000     -70.59160000
H      -47.41780000     -32.18470000     -69.68300000
H      -45.90260000     -32.21080000     -70.55040000
C      -47.10030000     -33.99080000     -70.72000000
C      -48.12480000     -34.59370000     -71.46730000
C      -46.24390000     -35.05990000     -70.12960000
H      -48.89650000     -34.03370000     -71.95030000
C      -46.66050000     -36.33980000     -70.39380000
C      -45.06290000     -35.11430000     -69.30320000
C      -44.57990000     -36.38360000     -69.05810000
S      -48.20810000     -36.34780000     -71.35470000
S      -45.51800000     -37.54700000     -69.88810000
H      -43.76100000     -36.68270000     -68.35620000
