40
Properties=species:S:1:pos:R:3 #=T CELL(abcABC):=T 1.889726e+02=T 90.00000=T Traj:=T positionsangstrom=T Step:=T 0=T Bead:=T pbc="F F F"
C      -45.77490000     -33.88130000     -73.75690000
C      -45.74950000     -35.04860000     -72.98440000
C      -46.67710000     -35.15000000     -71.95050000
C      -47.65870000     -34.17670000     -71.78020000
C      -47.73820000     -33.08700000     -72.68330000
C      -46.77860000     -32.95990000     -73.68260000
H      -44.90670000     -33.64930000     -74.41070000
H      -46.62120000     -35.97960000     -71.32990000
H      -48.42510000     -32.26870000     -72.51150000
H      -46.68750000     -32.02060000     -74.20900000
C      -48.67080000     -34.30960000     -70.63680000
H      -48.82160000     -35.37060000     -70.55090000
H      -49.64340000     -33.69100000     -70.74580000
C      -44.67730000     -36.13480000     -73.15380000
H      -45.02880000     -37.10670000     -73.54260000
H      -43.89560000     -35.68010000     -73.82980000
S      -48.08620000     -33.76740000     -69.00810000
S      -43.84570000     -36.55060000     -71.56870000
C      -46.41680000     -34.39340000     -68.69510000
H      -46.31120000     -34.95250000     -67.64860000
H      -46.22280000     -35.09110000     -69.51130000
C      -42.37160000     -35.42220000     -71.39810000
H      -42.13180000     -35.05800000     -72.38150000
H      -41.56430000     -36.10900000     -71.12590000
C      -42.55800000     -34.27990000     -70.34620000
H      -43.18590000     -34.59920000     -69.49930000
H      -41.61860000     -34.04700000     -69.83930000
C      -45.35390000     -33.20880000     -68.52030000
H      -44.37930000     -33.82190000     -68.33580000
H      -45.70460000     -32.67950000     -67.63250000
C      -45.29400000     -32.17800000     -69.65410000
C      -46.28170000     -31.27320000     -69.92820000
C      -44.27420000     -32.25560000     -70.72540000
H      -46.93150000     -30.81770000     -69.18410000
C      -44.40870000     -31.22100000     -71.67320000
C      -43.03430000     -33.00790000     -71.04810000
C      -42.41340000     -32.46070000     -72.17210000
S      -45.84550000     -30.25560000     -71.30730000
S      -43.27830000     -31.13700000     -72.91890000
H      -41.76120000     -33.06310000     -72.81690000
