40
Properties=species:S:1:pos:R:3 #=T CELL(abcABC):=T 1.889726e+02=T 90.00000=T Traj:=T positionsangstrom=T Step:=T 0=T Bead:=T pbc="F F F"
C      -45.88990000     -33.62480000     -73.64080000
C      -45.68510000     -34.87550000     -73.04830000
C      -46.61820000     -35.30900000     -72.07580000
C      -47.55190000     -34.43270000     -71.55000000
C      -47.65900000     -33.14110000     -72.09460000
C      -46.87380000     -32.73910000     -73.15980000
H      -45.31690000     -33.37490000     -74.46210000
H      -46.48960000     -36.26600000     -71.54970000
H      -48.33570000     -32.42290000     -71.52150000
H      -47.03040000     -31.84250000     -73.72980000
C      -48.55650000     -34.66230000     -70.41580000
H      -48.66920000     -35.71900000     -70.11860000
H      -49.54350000     -34.20370000     -70.71330000
C      -44.62740000     -35.77170000     -73.61610000
H      -45.13380000     -36.59220000     -74.08410000
H      -43.98130000     -35.30970000     -74.30640000
S      -48.07290000     -33.74000000     -68.86200000
S      -43.63510000     -36.68410000     -72.26430000
C      -46.27060000     -34.18310000     -68.62920000
H      -46.28470000     -34.75370000     -67.63080000
H      -45.91220000     -34.83320000     -69.45230000
C      -42.49400000     -35.65630000     -71.22560000
H      -41.63290000     -35.15980000     -71.78650000
H      -42.00070000     -36.38520000     -70.62500000
C      -43.25870000     -34.59870000     -70.43410000
H      -44.17540000     -35.06410000     -70.03510000
H      -42.60450000     -34.39600000     -69.56200000
C      -45.42400000     -32.95190000     -68.49760000
H      -44.39650000     -33.18860000     -68.17880000
H      -45.80180000     -32.35930000     -67.59090000
C      -45.27790000     -32.01220000     -69.66490000
C      -45.94430000     -30.79580000     -69.67700000
C      -44.45300000     -32.24620000     -70.81380000
H      -46.62550000     -30.42250000     -68.89930000
C      -44.46760000     -31.22340000     -71.67530000
C      -43.56530000     -33.32950000     -71.25190000
C      -42.88890000     -33.00920000     -72.38700000
S      -45.45710000     -29.87490000     -71.11070000
S      -43.30350000     -31.36950000     -72.97750000
H      -42.21060000     -33.69180000     -72.86740000
