40
Properties=species:S:1:pos:R:3 #=T CELL(abcABC):=T 1.889726e+02=T 90.00000=T Traj:=T positionsangstrom=T Step:=T 0=T Bead:=T pbc="F F F"
C      -45.90890000     -33.65300000     -73.73470000
C      -45.68170000     -34.88610000     -73.08900000
C      -46.52950000     -35.18470000     -72.04340000
C      -47.52000000     -34.33230000     -71.59200000
C      -47.63220000     -33.05080000     -72.10550000
C      -46.82300000     -32.75130000     -73.20360000
H      -45.18720000     -33.27570000     -74.46100000
H      -46.52180000     -36.18230000     -71.58700000
H      -48.35660000     -32.32630000     -71.61940000
H      -46.96300000     -31.80230000     -73.72230000
C      -48.29320000     -34.78750000     -70.35400000
H      -47.89940000     -35.74540000     -70.08310000
H      -49.31810000     -34.91870000     -70.44790000
C      -44.51770000     -35.71680000     -73.52900000
H      -44.83520000     -36.38950000     -74.38370000
H      -43.72640000     -35.04540000     -73.98040000
S      -48.03080000     -33.63260000     -68.93600000
S      -43.74070000     -36.87210000     -72.33370000
C      -46.28310000     -34.12560000     -68.50020000
H      -46.33820000     -34.64980000     -67.60570000
H      -45.96270000     -34.81430000     -69.30830000
C      -42.70170000     -35.79070000     -71.09420000
H      -41.84300000     -35.44220000     -71.63030000
H      -42.44030000     -36.46760000     -70.30480000
C      -43.48350000     -34.66710000     -70.49040000
H      -44.50030000     -34.94650000     -70.37420000
H      -43.11000000     -34.30450000     -69.48360000
C      -45.31910000     -32.92020000     -68.40760000
H      -44.34050000     -33.26160000     -68.19290000
H      -45.67460000     -32.31300000     -67.58260000
C      -45.20070000     -32.00470000     -69.57980000
C      -45.84280000     -30.77440000     -69.58600000
C      -44.35120000     -32.21420000     -70.74460000
H      -46.55230000     -30.44600000     -68.89350000
C      -44.41210000     -31.18030000     -71.64430000
C      -43.53120000     -33.33690000     -71.32280000
C      -42.89410000     -32.95490000     -72.49420000
S      -45.46810000     -29.87760000     -71.01310000
S      -43.46230000     -31.37570000     -73.07920000
H      -42.07310000     -33.55880000     -72.84120000
