40
Properties=species:S:1:pos:R:3 #=T CELL(abcABC):=T 1.889726e+02=T 90.00000=T Traj:=T positionsangstrom=T Step:=T 0=T Bead:=T pbc="F F F"
C      -45.89590000     -33.85220000     -73.73200000
C      -45.96620000     -34.99530000     -72.93960000
C      -46.86740000     -35.06540000     -71.86540000
C      -47.65690000     -33.95500000     -71.52700000
C      -47.52590000     -32.75170000     -72.30170000
C      -46.72210000     -32.77820000     -73.42100000
H      -45.22310000     -33.77200000     -74.58010000
H      -46.87790000     -36.02880000     -71.33720000
H      -48.28200000     -31.99820000     -72.11460000
H      -46.61250000     -31.77600000     -73.88420000
C      -48.61920000     -33.88880000     -70.43400000
H      -49.12110000     -34.91260000     -70.30800000
H      -49.36720000     -33.10490000     -70.50430000
C      -45.10500000     -36.19420000     -73.38530000
H      -45.72060000     -36.93900000     -73.81900000
H      -44.35520000     -35.97200000     -74.10930000
S      -47.80200000     -33.70490000     -68.69020000
S      -44.19800000     -36.94010000     -71.97000000
C      -46.07710000     -34.24970000     -68.72960000
H      -46.00900000     -35.02660000     -67.95060000
H      -45.84380000     -34.69070000     -69.70080000
C      -42.77460000     -35.81880000     -71.64960000
H      -42.25780000     -35.49940000     -72.55630000
H      -42.10940000     -36.50420000     -71.11420000
C      -43.02710000     -34.61450000     -70.65860000
H      -43.80330000     -34.88470000     -69.94340000
H      -42.10370000     -34.46710000     -70.10900000
C      -45.06850000     -33.06990000     -68.47700000
H      -44.04900000     -33.48190000     -68.25570000
H      -45.41300000     -32.60530000     -67.54970000
C      -44.98610000     -32.14600000     -69.62770000
C      -45.75440000     -30.96330000     -69.66880000
C      -44.21190000     -32.26840000     -70.80780000
H      -46.33550000     -30.62000000     -68.86160000
C      -44.34050000     -31.17680000     -71.64640000
C      -43.30200000     -33.30010000     -71.34480000
C      -42.72980000     -32.87000000     -72.51570000
S      -45.34980000     -29.92930000     -71.00150000
S      -43.46300000     -31.33180000     -73.13610000
H      -42.14290000     -33.34210000     -73.25310000
