40
Properties=species:S:1:pos:R:3 #=T CELL(abcABC):=T 1.889726e+02=T 90.00000=T Traj:=T positionsangstrom=T Step:=T 0=T Bead:=T pbc="F F F"
C      -46.68920000     -36.48260000     -73.67640000
C      -45.39490000     -35.91030000     -73.64810000
C      -44.51270000     -36.25420000     -72.61610000
C      -44.92400000     -36.90780000     -71.46350000
C      -46.20470000     -37.41560000     -71.45890000
C      -47.07330000     -37.27140000     -72.56800000
H      -47.42560000     -36.19790000     -74.50570000
H      -43.53900000     -35.89720000     -72.46900000
H      -46.49580000     -38.03820000     -70.59460000
H      -48.12670000     -37.71760000     -72.59760000
C      -44.00500000     -37.00420000     -70.28600000
H      -43.11530000     -36.49470000     -70.55360000
H      -43.78980000     -38.09230000     -70.08710000
C      -45.04990000     -35.10900000     -74.87600000
H      -44.58450000     -35.80310000     -75.54470000
H      -45.94590000     -34.73650000     -75.36480000
S      -44.69280000     -36.27840000     -68.71920000
S      -43.87940000     -33.74630000     -74.53990000
C      -45.65830000     -34.81990000     -69.31650000
H      -46.42920000     -35.05000000     -70.02380000
H      -46.28550000     -34.51720000     -68.44760000
C      -44.69830000     -32.60800000     -73.36080000
H      -45.28990000     -33.25350000     -72.71410000
H      -45.47370000     -31.99130000     -73.83910000
C      -43.70110000     -31.73010000     -72.55320000
H      -43.17040000     -32.48170000     -71.97260000
H      -42.97860000     -31.09160000     -73.19220000
C      -44.75780000     -33.65700000     -69.79300000
H      -44.41850000     -33.85330000     -70.80260000
H      -43.83900000     -33.67220000     -69.27200000
C      -45.50510000     -32.32940000     -69.74720000
C      -46.37330000     -32.01260000     -68.70650000
C      -45.30430000     -31.13000000     -70.49440000
H      -46.65810000     -32.69270000     -67.86390000
C      -46.12130000     -30.04920000     -70.11720000
C      -44.52380000     -30.79100000     -71.68240000
C      -44.65390000     -29.50150000     -72.08440000
S      -47.07880000     -30.44920000     -68.69730000
S      -45.84290000     -28.64170000     -71.04980000
H      -44.02650000     -29.10760000     -72.81840000
