40
Properties=species:S:1:pos:R:3 #=T CELL(abcABC):=T 1.889726e+02=T 90.00000=T Traj:=T positionsangstrom=T Step:=T 0=T Bead:=T pbc="F F F"
C      -46.19220000     -33.95290000     -74.05530000
C      -45.80690000     -34.89530000     -73.07650000
C      -46.52500000     -35.03190000     -71.84770000
C      -47.56970000     -34.14350000     -71.54790000
C      -47.92440000     -33.14250000     -72.51030000
C      -47.28070000     -33.11180000     -73.72800000
H      -45.55260000     -33.75530000     -74.86990000
H      -46.18220000     -35.84880000     -71.19950000
H      -48.76510000     -32.45840000     -72.28820000
H      -47.72190000     -32.49990000     -74.55610000
C      -48.42770000     -34.28520000     -70.37830000
H      -48.64650000     -35.31640000     -70.02520000
H      -49.50770000     -34.02530000     -70.64060000
C      -44.68930000     -35.78730000     -73.41700000
H      -45.10060000     -36.43980000     -74.21870000
H      -43.89710000     -35.32640000     -73.99780000
S      -47.83400000     -33.31840000     -68.93880000
S      -43.83580000     -36.84510000     -72.23660000
C      -46.16900000     -34.18150000     -68.51150000
H      -46.27290000     -34.81720000     -67.62430000
H      -45.77440000     -34.92740000     -69.27590000
C      -42.60670000     -35.73660000     -71.30010000
H      -41.88980000     -35.41040000     -72.05520000
H      -42.18630000     -36.47190000     -70.59290000
C      -43.30210000     -34.62260000     -70.53330000
H      -44.30170000     -34.99720000     -70.20770000
H      -42.65490000     -34.38310000     -69.64890000
C      -45.03810000     -33.15520000     -68.33610000
H      -44.05830000     -33.53200000     -68.28150000
H      -45.27620000     -32.57290000     -67.38180000
C      -44.93110000     -32.10380000     -69.42230000
C      -45.54580000     -30.86720000     -69.38310000
C      -44.30150000     -32.26800000     -70.71400000
H      -46.09990000     -30.55090000     -68.44510000
C      -44.36340000     -31.11580000     -71.54450000
C      -43.48010000     -33.32770000     -71.28260000
C      -43.02980000     -33.07240000     -72.52130000
S      -45.46840000     -29.92740000     -70.84700000
S      -43.44970000     -31.45740000     -73.05610000
H      -42.30390000     -33.63190000     -73.12610000
