40
Properties=species:S:1:pos:R:3 #=T CELL(abcABC):=T 1.889726e+02=T 90.00000=T Traj:=T positionsangstrom=T Step:=T 0=T Bead:=T pbc="F F F"
C      -45.85950000     -33.71750000     -73.79620000
C      -45.60740000     -34.90140000     -73.08300000
C      -46.30110000     -35.13870000     -71.89640000
C      -47.41680000     -34.37340000     -71.53700000
C      -47.73650000     -33.24450000     -72.35980000
C      -46.90430000     -32.83130000     -73.43410000
H      -45.37300000     -33.57080000     -74.82320000
H      -45.97430000     -35.94670000     -71.23110000
H      -48.61720000     -32.64010000     -72.22230000
H      -47.05890000     -31.87250000     -73.89130000
C      -48.22320000     -34.78520000     -70.31760000
H      -47.96620000     -35.90090000     -70.05330000
H      -49.31720000     -34.76310000     -70.51620000
C      -44.57930000     -35.78620000     -73.64590000
H      -44.91710000     -36.38110000     -74.45770000
H      -43.75340000     -35.19620000     -74.09790000
S      -48.00360000     -33.52030000     -68.92960000
S      -43.88940000     -36.92120000     -72.41830000
C      -46.37270000     -33.95390000     -68.26180000
H      -46.28940000     -34.41080000     -67.23860000
H      -45.95570000     -34.83580000     -68.85190000
C      -42.71570000     -35.72890000     -71.53150000
H      -42.10200000     -35.28330000     -72.35690000
H      -41.96800000     -36.40420000     -71.01940000
C      -43.27260000     -34.66920000     -70.61080000
H      -44.07850000     -35.11140000     -70.01570000
H      -42.52090000     -34.62400000     -69.80680000
C      -45.33750000     -32.82060000     -68.19210000
H      -44.33200000     -33.25590000     -67.82640000
H      -45.74190000     -32.10590000     -67.47370000
C      -45.12390000     -31.98760000     -69.43400000
C      -45.69330000     -30.73170000     -69.50720000
C      -44.38060000     -32.25550000     -70.64690000
H      -46.33360000     -30.31960000     -68.80800000
C      -44.37870000     -31.16930000     -71.51980000
C      -43.62580000     -33.37200000     -71.26260000
C      -43.09560000     -32.99400000     -72.50340000
S      -45.44590000     -29.87880000     -71.01510000
S      -43.50260000     -31.37570000     -72.95080000
H      -42.48760000     -33.69510000     -73.04840000
