40
Properties=species:S:1:pos:R:3 #=T CELL(abcABC):=T 1.889726e+02=T 90.00000=T Traj:=T positionsangstrom=T Step:=T 0=T Bead:=T pbc="F F F"
C      -45.99610000     -33.78620000     -73.87210000
C      -45.96900000     -34.97970000     -73.16660000
C      -46.86070000     -35.14490000     -72.05770000
C      -47.74920000     -34.14030000     -71.68160000
C      -47.84900000     -32.94710000     -72.42330000
C      -46.90200000     -32.81650000     -73.49240000
H      -45.23640000     -33.45240000     -74.61570000
H      -46.84970000     -36.06340000     -71.52060000
H      -48.47600000     -32.20210000     -72.02000000
H      -47.10380000     -31.96090000     -74.09780000
C      -48.60410000     -34.25310000     -70.45620000
H      -48.96400000     -35.29230000     -70.20330000
H      -49.64790000     -33.78690000     -70.60630000
C      -44.84930000     -35.97820000     -73.37360000
H      -45.04720000     -36.76450000     -74.06860000
H      -44.04760000     -35.45860000     -73.86340000
S      -47.82260000     -33.45070000     -68.95000000
S      -44.20970000     -36.72740000     -71.82260000
C      -46.25490000     -34.29310000     -68.76720000
H      -46.37330000     -35.14390000     -68.00990000
H      -46.11630000     -34.88200000     -69.68730000
C      -42.57540000     -35.84340000     -71.42420000
H      -42.03780000     -35.60020000     -72.33420000
H      -42.03020000     -36.61390000     -70.88790000
C      -42.69090000     -34.49450000     -70.62210000
H      -43.17660000     -34.75730000     -69.69020000
H      -41.68130000     -34.24030000     -70.32990000
C      -45.15100000     -33.24960000     -68.48570000
H      -44.31760000     -33.91570000     -68.24410000
H      -45.46420000     -32.69580000     -67.50980000
C      -44.90530000     -32.28210000     -69.52130000
C      -45.56040000     -31.01010000     -69.43190000
C      -44.09870000     -32.33220000     -70.75600000
H      -46.31860000     -30.75880000     -68.70670000
C      -44.30470000     -31.19290000     -71.56070000
C      -43.29240000     -33.30940000     -71.38190000
C      -42.82150000     -32.90080000     -72.61470000
S      -45.23070000     -29.90390000     -70.77560000
S      -43.64200000     -31.40740000     -73.12460000
H      -42.14320000     -33.42680000     -73.27760000
