40
Properties=species:S:1:pos:R:3 #=T CELL(abcABC):=T 1.889726e+02=T 90.00000=T Traj:=T positionsangstrom=T Step:=T 0=T Bead:=T pbc="F F F"
C      -45.89580000     -33.73440000     -73.75780000
C      -45.86690000     -34.89120000     -72.93760000
C      -46.78440000     -34.95310000     -71.90300000
C      -47.76060000     -33.93570000     -71.63590000
C      -47.83980000     -32.77700000     -72.52450000
C      -46.83640000     -32.73610000     -73.58830000
H      -45.29160000     -33.78290000     -74.59750000
H      -46.90120000     -35.80180000     -71.23190000
H      -48.48810000     -31.95840000     -72.32210000
H      -46.82980000     -31.97340000     -74.41880000
C      -48.65960000     -34.19630000     -70.42220000
H      -48.85550000     -35.23880000     -70.37250000
H      -49.54550000     -33.62480000     -70.48050000
C      -44.99590000     -36.08090000     -73.26520000
H      -45.73410000     -36.80500000     -73.67680000
H      -44.17030000     -35.84400000     -73.98560000
S      -47.85600000     -33.62950000     -68.86740000
S      -44.18800000     -36.91190000     -71.78450000
C      -46.02430000     -34.25590000     -68.92510000
H      -45.88730000     -35.06430000     -68.21930000
H      -45.78020000     -34.54050000     -69.92850000
C      -42.67300000     -35.89130000     -71.60020000
H      -42.24610000     -35.65860000     -72.59030000
H      -41.95650000     -36.53210000     -71.05360000
C      -42.97350000     -34.62260000     -70.68550000
H      -43.66850000     -34.86790000     -69.87700000
H      -42.04500000     -34.28300000     -70.15220000
C      -45.05640000     -33.16670000     -68.47300000
H      -44.09450000     -33.57710000     -68.27640000
H      -45.35150000     -32.65700000     -67.55960000
C      -44.83510000     -32.15290000     -69.51350000
C      -45.48310000     -30.88460000     -69.41260000
C      -44.20910000     -32.32930000     -70.81480000
H      -46.09300000     -30.62600000     -68.59210000
C      -44.32690000     -31.20420000     -71.59550000
C      -43.47070000     -33.35980000     -71.44360000
C      -42.91860000     -32.97210000     -72.66610000
S      -45.39430000     -29.97400000     -70.92770000
S      -43.39310000     -31.29900000     -73.03300000
H      -42.33790000     -33.49170000     -73.35380000
