40
Properties=species:S:1:pos:R:3 #=T CELL(abcABC):=T 1.889726e+02=T 90.00000=T Traj:=T positionsangstrom=T Step:=T 0=T Bead:=T pbc="F F F"
C      -45.93030000     -33.76460000     -73.70820000
C      -46.02700000     -34.99730000     -73.02310000
C      -46.84380000     -35.05740000     -71.90270000
C      -47.54850000     -33.92830000     -71.40740000
C      -47.37180000     -32.67980000     -72.09550000
C      -46.62420000     -32.62550000     -73.28020000
H      -45.32350000     -33.75570000     -74.69180000
H      -46.96520000     -35.99350000     -71.33470000
H      -47.83510000     -31.70400000     -71.73160000
H      -46.57110000     -31.66780000     -73.77200000
C      -48.54090000     -34.05630000     -70.28880000
H      -49.00460000     -35.04450000     -70.36100000
H      -49.40580000     -33.41410000     -70.44160000
C      -45.26500000     -36.26490000     -73.38080000
H      -45.93400000     -37.15670000     -73.56150000
H      -44.70560000     -36.16760000     -74.35870000
S      -47.90350000     -33.65190000     -68.55940000
S      -44.25920000     -36.90530000     -71.93970000
C      -46.11750000     -34.22790000     -68.58640000
H      -46.03570000     -34.90400000     -67.71780000
H      -46.04640000     -34.89810000     -69.46700000
C      -42.76790000     -35.83990000     -71.68010000
H      -42.36680000     -35.55650000     -72.65650000
H      -41.97010000     -36.51250000     -71.30570000
C      -43.05280000     -34.64120000     -70.78250000
H      -43.73520000     -35.01000000     -69.96660000
H      -42.12640000     -34.47460000     -70.21400000
C      -45.07180000     -33.09670000     -68.48420000
H      -44.06270000     -33.51710000     -68.26780000
H      -45.34810000     -32.49710000     -67.61370000
C      -45.01830000     -32.17290000     -69.71160000
C      -45.61790000     -30.91820000     -69.64790000
C      -44.22500000     -32.26700000     -70.89770000
H      -46.34740000     -30.70850000     -68.86930000
C      -44.27290000     -31.16470000     -71.72870000
C      -43.41880000     -33.37910000     -71.48680000
C      -42.89720000     -32.94390000     -72.67330000
S      -45.40630000     -30.00420000     -71.14720000
S      -43.24290000     -31.29260000     -73.15130000
H      -42.10000000     -33.49480000     -73.22240000
