40
Properties=species:S:1:pos:R:3 #=T CELL(abcABC):=T 1.889726e+02=T 90.00000=T Traj:=T positionsangstrom=T Step:=T 0=T Bead:=T pbc="F F F"
C      -46.36000000     -33.54320000     -73.76080000
C      -46.08200000     -34.66590000     -72.94800000
C      -46.91230000     -34.84440000     -71.83260000
C      -47.88500000     -33.84400000     -71.44670000
C      -47.94700000     -32.68650000     -72.18270000
C      -47.18500000     -32.48880000     -73.36260000
H      -45.79090000     -33.50850000     -74.80700000
H      -46.80500000     -35.74750000     -71.18850000
H      -48.69080000     -31.95560000     -71.85300000
H      -47.31110000     -31.49740000     -73.84660000
C      -48.64320000     -33.96420000     -70.12470000
H      -48.84500000     -35.03050000     -70.01360000
H      -49.60430000     -33.40670000     -70.14850000
C      -45.09510000     -35.75400000     -73.50130000
H      -45.60830000     -36.46680000     -74.16370000
H      -44.28460000     -35.15050000     -73.90840000
S      -47.75620000     -33.24500000     -68.66950000
S      -44.46340000     -36.86300000     -72.20290000
C      -46.11830000     -34.04760000     -68.68650000
H      -46.15490000     -34.89920000     -67.96650000
H      -46.01390000     -34.35210000     -69.73530000
C      -42.86310000     -36.16420000     -71.61470000
H      -42.19110000     -36.10030000     -72.44340000
H      -42.43660000     -37.02390000     -71.05050000
C      -43.05990000     -34.94090000     -70.62050000
H      -43.91530000     -35.14160000     -70.01680000
H      -42.17430000     -34.85470000     -69.95930000
C      -44.99770000     -33.02740000     -68.33360000
H      -44.11940000     -33.64780000     -68.08120000
H      -45.24640000     -32.52280000     -67.42590000
C      -44.63350000     -32.09990000     -69.46130000
C      -45.10110000     -30.81720000     -69.54030000
C      -43.97930000     -32.49400000     -70.73200000
H      -45.56120000     -30.22840000     -68.71850000
C      -44.13650000     -31.43930000     -71.69370000
C      -43.31230000     -33.59820000     -71.25660000
C      -42.91710000     -33.34720000     -72.59900000
S      -44.86780000     -30.01740000     -71.11990000
S      -43.44640000     -31.84940000     -73.23350000
H      -42.62660000     -34.18770000     -73.34100000
