40
Properties=species:S:1:pos:R:3 #=T CELL(abcABC):=T 1.889726e+02=T 90.00000=T Traj:=T positionsangstrom=T Step:=T 0=T Bead:=T pbc="F F F"
C      -46.27440000     -33.51940000     -73.79510000
C      -46.03910000     -34.68100000     -73.03340000
C      -46.88970000     -34.82560000     -71.91140000
C      -47.78600000     -33.87490000     -71.43670000
C      -47.88480000     -32.67080000     -72.16470000
C      -47.13490000     -32.55690000     -73.37510000
H      -45.67620000     -33.32090000     -74.77680000
H      -46.71860000     -35.71400000     -71.35870000
H      -48.43300000     -31.78300000     -71.76390000
H      -47.20540000     -31.65220000     -73.88010000
C      -48.41540000     -34.16140000     -70.11720000
H      -48.37190000     -35.21190000     -69.86780000
H      -49.48350000     -33.85710000     -70.07760000
C      -45.06880000     -35.74270000     -73.46410000
H      -45.54200000     -36.42720000     -74.20130000
H      -44.32980000     -35.38140000     -74.13140000
S      -47.67630000     -33.11280000     -68.71690000
S      -44.48880000     -36.87300000     -72.11810000
C      -46.10090000     -34.07040000     -68.44820000
H      -46.11110000     -34.61920000     -67.53530000
H      -45.97260000     -34.86330000     -69.15880000
C      -42.91530000     -36.17800000     -71.38280000
H      -42.12230000     -36.07630000     -72.16570000
H      -42.53400000     -36.91450000     -70.66320000
C      -43.11490000     -34.83330000     -70.63090000
H      -43.81460000     -34.99370000     -69.85900000
H      -42.15660000     -34.51840000     -70.07960000
C      -44.87740000     -33.17760000     -68.38420000
H      -43.96480000     -33.76670000     -68.26830000
H      -44.89930000     -32.50120000     -67.50200000
C      -44.82180000     -32.22430000     -69.59530000
C      -45.38920000     -31.00240000     -69.60150000
C      -44.19150000     -32.51450000     -70.89830000
H      -45.97540000     -30.58710000     -68.78220000
C      -44.25630000     -31.43790000     -71.74610000
C      -43.43010000     -33.58870000     -71.38380000
C      -42.86550000     -33.31870000     -72.62380000
S      -45.00720000     -30.05400000     -71.04780000
S      -43.32810000     -31.69300000     -73.26830000
H      -42.42010000     -33.94150000     -73.45340000
