40
Properties=species:S:1:pos:R:3 #=T CELL(abcABC):=T 1.889726e+02=T 90.00000=T Traj:=T positionsangstrom=T Step:=T 0=T Bead:=T pbc="F F F"
C      -46.02880000     -33.61030000     -73.55010000
C      -46.01480000     -34.84500000     -72.87330000
C      -46.84370000     -35.04340000     -71.72370000
C      -47.68990000     -34.04210000     -71.32050000
C      -47.65390000     -32.79160000     -71.97880000
C      -46.90820000     -32.64230000     -73.14840000
H      -45.45670000     -33.43410000     -74.42760000
H      -46.87990000     -36.02860000     -71.31350000
H      -48.43830000     -32.09310000     -71.75270000
H      -46.86280000     -31.64830000     -73.59060000
C      -48.61650000     -34.13690000     -70.13090000
H      -48.80470000     -35.16230000     -69.75790000
H      -49.55930000     -33.68740000     -70.49250000
C      -45.29460000     -35.98190000     -73.61590000
H      -46.11080000     -36.55070000     -74.22140000
H      -44.55500000     -35.50040000     -74.24150000
S      -47.93940000     -33.22230000     -68.76910000
S      -44.53930000     -37.13070000     -72.37140000
C      -46.30260000     -33.92850000     -68.44980000
H      -46.38470000     -34.34000000     -67.40920000
H      -46.15750000     -34.68800000     -69.18990000
C      -43.06030000     -36.08110000     -71.77550000
H      -42.50680000     -35.74420000     -72.63950000
H      -42.35340000     -36.80350000     -71.26440000
C      -43.40350000     -34.89090000     -70.86160000
H      -44.27670000     -35.13120000     -70.29000000
H      -42.61680000     -34.82460000     -70.05480000
C      -45.09220000     -33.04810000     -68.45280000
H      -44.19030000     -33.68180000     -68.29530000
H      -45.09060000     -32.39610000     -67.59340000
C      -44.89510000     -32.07380000     -69.60860000
C      -45.28620000     -30.76690000     -69.54710000
C      -44.12670000     -32.37240000     -70.82100000
H      -45.98520000     -30.42930000     -68.80480000
C      -43.86430000     -31.26250000     -71.55320000
C      -43.53190000     -33.57810000     -71.52260000
C      -43.02760000     -33.24540000     -72.74250000
S      -44.76410000     -29.86590000     -70.99070000
S      -43.08940000     -31.53040000     -73.09800000
H      -42.64710000     -33.90650000     -73.46890000
