40
Properties=species:S:1:pos:R:3 #=T CELL(abcABC):=T 1.889726e+02=T 90.00000=T Traj:=T positionsangstrom=T Step:=T 0=T Bead:=T pbc="F F F"
C      -46.09660000     -33.65230000     -73.74260000
C      -45.89590000     -34.77490000     -72.94630000
C      -46.68090000     -34.92750000     -71.78800000
C      -47.67800000     -34.00980000     -71.41450000
C      -47.75340000     -32.81280000     -72.17810000
C      -47.03870000     -32.67920000     -73.35390000
H      -45.52140000     -33.50540000     -74.63960000
H      -46.71290000     -35.82210000     -71.20290000
H      -48.46620000     -32.06030000     -71.83540000
H      -47.24740000     -31.91620000     -74.04770000
C      -48.50730000     -34.12620000     -70.14300000
H      -48.69100000     -35.13420000     -69.68550000
H      -49.45140000     -33.66380000     -70.31390000
C      -44.94930000     -35.87500000     -73.44190000
H      -45.49900000     -36.47260000     -74.18090000
H      -44.02150000     -35.42200000     -73.88840000
S      -47.79640000     -33.10600000     -68.73950000
S      -44.44380000     -36.99500000     -72.13270000
C      -46.18960000     -34.02430000     -68.30400000
H      -46.35340000     -34.43000000     -67.29310000
H      -46.05350000     -34.78570000     -69.08180000
C      -42.89990000     -36.12710000     -71.61220000
H      -42.38760000     -35.83910000     -72.54050000
H      -42.36920000     -36.80760000     -71.00350000
C      -43.20350000     -34.87740000     -70.71650000
H      -43.95160000     -35.08800000     -69.91300000
H      -42.30630000     -34.73590000     -70.15550000
C      -44.93750000     -33.03840000     -68.38170000
H      -44.08980000     -33.67410000     -68.19930000
H      -45.10150000     -32.33080000     -67.54560000
C      -44.89670000     -32.06060000     -69.56210000
C      -45.42790000     -30.83140000     -69.61660000
C      -44.15910000     -32.41690000     -70.83850000
H      -46.11750000     -30.40040000     -68.93360000
C      -44.24550000     -31.36220000     -71.72500000
C      -43.43400000     -33.57590000     -71.42250000
C      -42.80340000     -33.23090000     -72.58900000
S      -45.24650000     -30.07510000     -71.17250000
S      -43.24300000     -31.56050000     -73.18760000
H      -41.94860000     -33.63410000     -73.05860000
