40
Properties=species:S:1:pos:R:3 #=T CELL(abcABC):=T 1.889726e+02=T 90.00000=T Traj:=T positionsangstrom=T Step:=T 0=T Bead:=T pbc="F F F"
C      -45.95110000     -33.34440000     -73.82350000
C      -46.37260000     -34.50630000     -73.08430000
C      -47.20110000     -34.34990000     -71.95190000
C      -47.68080000     -33.04850000     -71.49150000
C      -47.25870000     -31.98060000     -72.26960000
C      -46.40820000     -32.13530000     -73.38540000
H      -45.20290000     -33.38580000     -74.62630000
H      -47.45320000     -35.19820000     -71.36300000
H      -47.71060000     -30.96930000     -72.23980000
H      -46.19310000     -31.26050000     -74.00310000
C      -48.64880000     -32.90150000     -70.43830000
H      -49.25210000     -33.77790000     -70.42970000
H      -49.36190000     -32.07760000     -70.52130000
C      -45.93330000     -35.88480000     -73.56770000
H      -46.70840000     -36.26370000     -74.27750000
H      -45.07290000     -35.78380000     -74.17970000
S      -47.80790000     -32.55790000     -68.77820000
S      -45.58700000     -37.05020000     -72.25140000
C      -46.47480000     -33.84660000     -68.76580000
H      -46.71730000     -34.57280000     -67.98820000
H      -46.46050000     -34.25000000     -69.77440000
C      -43.93020000     -36.62100000     -71.58190000
H      -43.32800000     -36.39430000     -72.41590000
H      -43.61520000     -37.44970000     -70.98010000
C      -43.80360000     -35.47440000     -70.59370000
H      -44.57330000     -35.37650000     -69.89820000
H      -42.94960000     -35.73100000     -69.97330000
C      -45.14240000     -33.26960000     -68.35150000
H      -44.31690000     -34.06940000     -68.11810000
H      -45.04760000     -32.69770000     -67.39970000
C      -44.59620000     -32.37200000     -69.50350000
C      -44.67540000     -30.99480000     -69.46300000
C      -43.95200000     -32.81190000     -70.71840000
H      -44.89500000     -30.35970000     -68.63310000
C      -43.50390000     -31.78300000     -71.56330000
C      -43.51060000     -34.11970000     -71.26020000
C      -42.78950000     -33.95320000     -72.38350000
S      -44.00580000     -30.24870000     -70.93430000
S      -42.78630000     -32.30100000     -73.03850000
H      -42.34630000     -34.68020000     -72.99510000
