40
Properties=species:S:1:pos:R:3 #=T CELL(abcABC):=T 1.889726e+02=T 90.00000=T Traj:=T positionsangstrom=T Step:=T 0=T Bead:=T pbc="F F F"
C      -45.96470000     -33.63190000     -73.81070000
C      -46.37650000     -34.73300000     -73.04300000
C      -47.23670000     -34.54720000     -71.95480000
C      -47.71090000     -33.25700000     -71.64860000
C      -47.19870000     -32.15970000     -72.33340000
C      -46.40180000     -32.34170000     -73.49000000
H      -45.18070000     -33.87830000     -74.52470000
H      -47.69180000     -35.42050000     -71.47980000
H      -47.42390000     -31.11230000     -71.97730000
H      -46.05110000     -31.55610000     -74.07840000
C      -48.63490000     -33.14660000     -70.45530000
H      -49.24230000     -34.01460000     -70.20950000
H      -49.32740000     -32.31390000     -70.47710000
C      -45.79070000     -36.06810000     -73.44010000
H      -46.55830000     -36.77080000     -73.87870000
H      -44.91710000     -35.97540000     -74.17030000
S      -47.74610000     -32.78450000     -68.85640000
S      -45.03310000     -37.08740000     -72.00880000
C      -46.47490000     -34.06910000     -68.74860000
H      -46.67570000     -34.81120000     -67.93920000
H      -46.56120000     -34.69750000     -69.66170000
C      -43.33960000     -36.37470000     -71.90030000
H      -43.09210000     -36.01290000     -72.93840000
H      -42.63470000     -37.22640000     -71.82490000
C      -43.24860000     -35.25580000     -70.83170000
H      -43.95700000     -35.54470000     -70.00940000
H      -42.24190000     -35.39150000     -70.39380000
C      -45.08010000     -33.41240000     -68.45980000
H      -44.39120000     -34.19890000     -68.35770000
H      -45.07850000     -32.78970000     -67.57750000
C      -44.72210000     -32.43530000     -69.48570000
C      -45.00390000     -31.09450000     -69.32300000
C      -44.00050000     -32.69980000     -70.74060000
H      -45.35720000     -30.76040000     -68.34780000
C      -43.84210000     -31.55620000     -71.49150000
C      -43.32220000     -33.83840000     -71.36150000
C      -42.86910000     -33.49150000     -72.61630000
S      -44.55220000     -30.10200000     -70.69610000
S      -43.15890000     -31.84100000     -73.04440000
H      -42.50870000     -34.20990000     -73.41830000
