40
Properties=species:S:1:pos:R:3 #=T CELL(abcABC):=T 1.889726e+02=T 90.00000=T Traj:=T positionsangstrom=T Step:=T 0=T Bead:=T pbc="F F F"
C      -45.87890000     -33.69370000     -73.75970000
C      -46.25900000     -34.84130000     -73.09730000
C      -47.13030000     -34.69240000     -71.95150000
C      -47.63830000     -33.48120000     -71.59080000
C      -47.28760000     -32.30970000     -72.34570000
C      -46.42810000     -32.41180000     -73.43770000
H      -45.32610000     -33.87390000     -74.67890000
H      -47.25030000     -35.57700000     -71.41150000
H      -47.79900000     -31.39750000     -72.12030000
H      -46.11270000     -31.48740000     -73.92350000
C      -48.65200000     -33.34170000     -70.54610000
H      -49.20230000     -34.29110000     -70.51240000
H      -49.27450000     -32.43140000     -70.79560000
C      -45.79800000     -36.25250000     -73.42350000
H      -46.58910000     -36.88520000     -73.69280000
H      -45.16940000     -36.16600000     -74.29910000
S      -47.86010000     -32.95040000     -68.82930000
S      -44.99090000     -37.09360000     -72.03670000
C      -46.39480000     -34.01410000     -68.72280000
H      -46.61540000     -34.75680000     -67.97320000
H      -46.28840000     -34.54680000     -69.63690000
C      -43.31230000     -36.31680000     -71.77040000
H      -42.90150000     -35.94040000     -72.67060000
H      -42.64980000     -37.08640000     -71.35160000
C      -43.29050000     -35.08620000     -70.80490000
H      -44.05010000     -35.12640000     -70.03590000
H      -42.29960000     -35.01610000     -70.33520000
C      -45.04130000     -33.33140000     -68.45600000
H      -44.21230000     -34.16670000     -68.39070000
H      -45.14550000     -32.84090000     -67.48070000
C      -44.65110000     -32.36990000     -69.51620000
C      -44.93540000     -31.04740000     -69.31340000
C      -44.07230000     -32.61190000     -70.81310000
H      -45.44630000     -30.58060000     -68.49110000
C      -43.95620000     -31.47500000     -71.51780000
C      -43.41410000     -33.71060000     -71.48360000
C      -42.92780000     -33.41820000     -72.70550000
S      -44.60640000     -30.04730000     -70.68500000
S      -43.09480000     -31.62950000     -73.00830000
H      -42.37840000     -34.01600000     -73.50080000
