40
Properties=species:S:1:pos:R:3 #=T CELL(abcABC):=T 1.889726e+02=T 90.00000=T Traj:=T positionsangstrom=T Step:=T 0=T Bead:=T pbc="F F F"
C      -45.75670000     -33.21570000     -73.74440000
C      -46.15320000     -34.35650000     -73.13040000
C      -47.07670000     -34.31430000     -72.09600000
C      -47.56750000     -33.06780000     -71.65700000
C      -47.15640000     -31.84730000     -72.29700000
C      -46.28950000     -31.95080000     -73.39500000
H      -45.07130000     -33.31810000     -74.57100000
H      -47.45270000     -35.21980000     -71.53400000
H      -47.57930000     -30.88330000     -72.06520000
H      -45.94590000     -31.14580000     -73.97960000
C      -48.60530000     -32.91670000     -70.46290000
H      -49.06320000     -33.83450000     -70.09980000
H      -49.38710000     -32.26250000     -70.72050000
C      -45.67700000     -35.72640000     -73.66750000
H      -46.36860000     -36.20510000     -74.30780000
H      -44.69540000     -35.72100000     -74.09030000
S      -47.84780000     -32.23780000     -68.93790000
S      -45.74950000     -37.06210000     -72.30420000
C      -46.71790000     -33.61790000     -68.41640000
H      -46.98520000     -34.02610000     -67.45680000
H      -46.87490000     -34.48380000     -69.08000000
C      -44.18170000     -36.87980000     -71.25760000
H      -43.32900000     -37.12290000     -71.85650000
H      -44.14750000     -37.70900000     -70.58740000
C      -43.98710000     -35.51300000     -70.40030000
H      -44.99440000     -35.38770000     -69.90380000
H      -43.32000000     -35.49550000     -69.56260000
C      -45.28040000     -33.14520000     -68.34170000
H      -44.57560000     -33.92930000     -68.20000000
H      -45.09920000     -32.38270000     -67.53750000
C      -44.72510000     -32.36700000     -69.55120000
C      -44.83370000     -31.01240000     -69.63990000
C      -43.99580000     -32.91440000     -70.69810000
H      -45.39420000     -30.40200000     -68.89310000
C      -43.55590000     -31.94170000     -71.58590000
C      -43.59710000     -34.24390000     -71.20020000
C      -42.74110000     -34.21690000     -72.28510000
S      -43.96260000     -30.35240000     -71.06000000
S      -42.55670000     -32.54980000     -72.92000000
H      -42.38820000     -35.14780000     -72.80030000
