40
Properties=species:S:1:pos:R:3 #=T CELL(abcABC):=T 1.889726e+02=T 90.00000=T Traj:=T positionsangstrom=T Step:=T 0=T Bead:=T pbc="F F F"
C      -45.98960000     -33.34070000     -73.85260000
C      -46.41120000     -34.46620000     -73.09740000
C      -47.24960000     -34.34060000     -71.98550000
C      -47.69980000     -33.04910000     -71.67760000
C      -47.25870000     -31.97220000     -72.39890000
C      -46.47160000     -32.10830000     -73.53100000
H      -45.50440000     -33.42310000     -74.84990000
H      -47.66860000     -35.15810000     -71.48900000
H      -47.50250000     -30.99710000     -72.03670000
H      -46.28050000     -31.16900000     -74.15770000
C      -48.66360000     -33.01420000     -70.45650000
H      -49.32630000     -33.90090000     -70.27970000
H      -49.37340000     -32.13790000     -70.48940000
C      -46.00320000     -35.95210000     -73.50260000
H      -46.77760000     -36.56010000     -73.89590000
H      -45.10240000     -35.94380000     -74.17500000
S      -47.79250000     -32.61160000     -68.83140000
S      -45.50330000     -37.10100000     -72.03640000
C      -46.47140000     -33.92330000     -68.60920000
H      -46.69700000     -34.61750000     -67.77620000
H      -46.46340000     -34.65690000     -69.39640000
C      -43.73860000     -36.69310000     -71.56890000
H      -43.11790000     -36.65600000     -72.48430000
H      -43.33950000     -37.60780000     -71.13650000
C      -43.57600000     -35.43660000     -70.71480000
H      -44.32650000     -35.47120000     -69.93490000
H      -42.58440000     -35.55320000     -70.20410000
C      -45.04260000     -33.27620000     -68.39900000
H      -44.40520000     -34.12690000     -68.21080000
H      -45.19010000     -32.75740000     -67.56080000
C      -44.58280000     -32.42470000     -69.53070000
C      -44.72850000     -31.05130000     -69.43490000
C      -43.96000000     -32.81860000     -70.75400000
H      -45.11280000     -30.58860000     -68.53740000
C      -43.54640000     -31.71780000     -71.51990000
C      -43.54770000     -34.07740000     -71.36350000
C      -42.96260000     -33.90290000     -72.56570000
S      -44.09280000     -30.19640000     -70.83790000
S      -42.76170000     -32.13550000     -73.00690000
H      -42.76090000     -34.57870000     -73.30450000
