40
Properties=species:S:1:pos:R:3 #=T CELL(abcABC):=T 1.889726e+02=T 90.00000=T Traj:=T positionsangstrom=T Step:=T 0=T Bead:=T pbc="F F F"
C      -45.80130000     -33.26740000     -73.72940000
C      -46.28790000     -34.38270000     -73.07910000
C      -47.24800000     -34.22950000     -72.05810000
C      -47.66100000     -32.95630000     -71.59370000
C      -47.12960000     -31.80350000     -72.23500000
C      -46.28290000     -31.99910000     -73.28520000
H      -45.15480000     -33.24580000     -74.55170000
H      -47.67280000     -35.17040000     -71.64560000
H      -47.36300000     -30.79070000     -71.76100000
H      -45.92830000     -31.08940000     -73.76360000
C      -48.63260000     -32.90300000     -70.44520000
H      -49.09070000     -33.92630000     -70.45520000
H      -49.37730000     -32.08000000     -70.61310000
C      -45.75860000     -35.76470000     -73.52990000
H      -46.45920000     -36.22300000     -74.32680000
H      -44.77940000     -35.66890000     -74.00340000
S      -47.83280000     -32.42550000     -68.90810000
S      -45.62320000     -37.06660000     -72.27730000
C      -46.57940000     -33.71570000     -68.56660000
H      -46.98080000     -34.29340000     -67.74890000
H      -46.51530000     -34.39240000     -69.46800000
C      -43.96990000     -36.74170000     -71.44990000
H      -43.16350000     -36.70140000     -72.23940000
H      -43.86060000     -37.68430000     -70.81800000
C      -44.00800000     -35.54330000     -70.56360000
H      -45.00730000     -35.52700000     -70.10700000
H      -43.26980000     -35.80010000     -69.75370000
C      -45.10580000     -33.19210000     -68.36720000
H      -44.51760000     -34.06900000     -68.23120000
H      -45.13680000     -32.72770000     -67.39800000
C      -44.61800000     -32.38540000     -69.51960000
C      -44.77170000     -31.03780000     -69.57850000
C      -43.96260000     -32.93660000     -70.66170000
H      -45.32650000     -30.39770000     -68.93880000
C      -43.46470000     -31.91130000     -71.49390000
C      -43.63770000     -34.24260000     -71.25990000
C      -42.98860000     -34.10920000     -72.43350000
S      -44.06330000     -30.32720000     -71.04200000
S      -42.61120000     -32.43020000     -72.93560000
H      -42.50220000     -34.88060000     -73.02660000
