40
Properties=species:S:1:pos:R:3 #=T CELL(abcABC):=T 1.889726e+02=T 90.00000=T Traj:=T positionsangstrom=T Step:=T 0=T Bead:=T pbc="F F F"
C      -45.98870000     -33.70430000     -73.76530000
C      -46.21550000     -34.88210000     -73.04070000
C      -47.17900000     -34.82460000     -72.05910000
C      -47.66540000     -33.59060000     -71.57360000
C      -47.36800000     -32.41630000     -72.24450000
C      -46.55980000     -32.48910000     -73.38980000
H      -45.26120000     -33.77710000     -74.53780000
H      -47.42270000     -35.78170000     -71.56540000
H      -47.82290000     -31.52210000     -71.89650000
H      -46.35970000     -31.50170000     -73.90810000
C      -48.55040000     -33.57910000     -70.37680000
H      -48.92930000     -34.58280000     -70.24670000
H      -49.37140000     -32.90680000     -70.51970000
C      -45.66280000     -36.27160000     -73.52230000
H      -46.49960000     -36.85990000     -74.08380000
H      -44.82250000     -36.06850000     -74.19860000
S      -47.77160000     -33.01160000     -68.80680000
S      -44.91790000     -37.27620000     -72.02560000
C      -46.25240000     -34.11360000     -68.74920000
H      -46.36780000     -34.81540000     -67.89220000
H      -46.21550000     -34.63830000     -69.69580000
C      -43.37270000     -36.19120000     -71.88160000
H      -43.14710000     -35.82100000     -72.88160000
H      -42.60580000     -36.98440000     -71.64250000
C      -43.44530000     -35.04550000     -70.86830000
H      -44.25080000     -35.09600000     -70.16510000
H      -42.55950000     -35.15440000     -70.20260000
C      -45.04560000     -33.24250000     -68.48860000
H      -44.14540000     -33.87870000     -68.37560000
H      -45.13780000     -32.78460000     -67.54780000
C      -44.79510000     -32.25530000     -69.54440000
C      -45.13420000     -30.92620000     -69.36310000
C      -44.04860000     -32.52390000     -70.78690000
H      -45.73560000     -30.42830000     -68.61890000
C      -43.88680000     -31.30270000     -71.48020000
C      -43.45570000     -33.67440000     -71.49970000
C      -42.93760000     -33.24800000     -72.68780000
S      -44.53210000     -29.93520000     -70.71060000
S      -43.13440000     -31.53690000     -72.98840000
H      -42.38800000     -33.83650000     -73.42110000
