40
Properties=species:S:1:pos:R:3 #=T CELL(abcABC):=T 1.889726e+02=T 90.00000=T Traj:=T positionsangstrom=T Step:=T 0=T Bead:=T pbc="F F F"
C      -45.82720000     -33.36450000     -73.91370000
C      -46.31450000     -34.42390000     -73.12480000
C      -47.22310000     -34.16090000     -72.06360000
C      -47.67900000     -32.84120000     -71.88180000
C      -47.22950000     -31.77790000     -72.69700000
C      -46.25320000     -32.05530000     -73.66020000
H      -45.05970000     -33.52620000     -74.67680000
H      -47.56560000     -34.90710000     -71.41520000
H      -47.64670000     -30.78800000     -72.46130000
H      -45.81800000     -31.19050000     -74.26540000
C      -48.62630000     -32.54700000     -70.70520000
H      -49.29610000     -33.34660000     -70.59770000
H      -49.25240000     -31.69330000     -70.98180000
C      -45.80350000     -35.79690000     -73.52630000
H      -46.58200000     -36.10410000     -74.24950000
H      -44.93860000     -35.63720000     -74.09860000
S      -47.84640000     -32.11350000     -69.08470000
S      -45.75800000     -36.99520000     -72.18360000
C      -46.71080000     -33.47030000     -68.68770000
H      -47.19530000     -34.00040000     -67.81200000
H      -46.67160000     -34.24240000     -69.42680000
C      -44.35120000     -36.88600000     -71.14260000
H      -43.36430000     -37.15350000     -71.55320000
H      -44.55120000     -37.64930000     -70.37540000
C      -44.15720000     -35.61680000     -70.27710000
H      -45.02120000     -35.45690000     -69.71100000
H      -43.36690000     -35.96870000     -69.58060000
C      -45.28590000     -33.00710000     -68.28140000
H      -44.71490000     -33.84850000     -67.95720000
H      -45.22310000     -32.34390000     -67.48910000
C      -44.61210000     -32.30150000     -69.41320000
C      -44.74250000     -30.94520000     -69.69280000
C      -43.86380000     -32.95530000     -70.53110000
H      -45.36430000     -30.30310000     -69.09830000
C      -43.33390000     -32.04590000     -71.46110000
C      -43.64890000     -34.32290000     -70.90900000
C      -42.92340000     -34.40220000     -72.10640000
S      -43.77020000     -30.41550000     -71.09550000
S      -42.43340000     -32.83610000     -72.72900000
H      -42.65720000     -35.38110000     -72.64940000
