40
Properties=species:S:1:pos:R:3 #=T CELL(abcABC):=T 1.889726e+02=T 90.00000=T Traj:=T positionsangstrom=T Step:=T 0=T Bead:=T pbc="F F F"
C      -45.56110000     -33.35660000     -73.71830000
C      -46.12490000     -34.41580000     -72.93210000
C      -47.18010000     -34.13380000     -72.00990000
C      -47.62190000     -32.81050000     -71.87630000
C      -47.08880000     -31.79030000     -72.67020000
C      -46.05180000     -32.09770000     -73.56680000
H      -44.86380000     -33.61370000     -74.49030000
H      -47.66870000     -34.95970000     -71.38780000
H      -47.49680000     -30.73820000     -72.57650000
H      -45.65850000     -31.32200000     -74.19190000
C      -48.68580000     -32.51470000     -70.83430000
H      -49.35100000     -33.39850000     -70.72390000
H      -49.31790000     -31.79750000     -71.30310000
C      -45.77410000     -35.88630000     -73.24120000
H      -46.36670000     -36.19040000     -74.10530000
H      -44.78560000     -35.83980000     -73.73680000
S      -48.00700000     -31.86880000     -69.24370000
S      -46.02790000     -37.04830000     -71.82480000
C      -46.91930000     -33.30200000     -68.66160000
H      -47.24200000     -33.60800000     -67.67700000
H      -47.01990000     -34.10590000     -69.37700000
C      -44.41040000     -36.94410000     -70.81760000
H      -43.66760000     -37.11310000     -71.59970000
H      -44.46060000     -37.73230000     -70.08230000
C      -44.04070000     -35.59730000     -70.16580000
H      -44.95290000     -35.36390000     -69.53570000
H      -43.13350000     -35.74280000     -69.60660000
C      -45.48280000     -32.77270000     -68.47140000
H      -44.88220000     -33.60210000     -68.20430000
H      -45.41210000     -32.06610000     -67.67950000
C      -44.70800000     -32.19810000     -69.65460000
C      -44.55380000     -30.86950000     -69.86640000
C      -43.91010000     -33.01520000     -70.65770000
H      -44.87290000     -30.05200000     -69.22840000
C      -43.21730000     -32.15630000     -71.55220000
C      -43.79220000     -34.41860000     -71.04550000
C      -43.01580000     -34.57200000     -72.20110000
S      -43.55510000     -30.43420000     -71.26640000
S      -42.39570000     -33.06090000     -72.81390000
H      -42.81300000     -35.46920000     -72.68400000
