40
Properties=species:S:1:pos:R:3 #=T CELL(abcABC):=T 1.889726e+02=T 90.00000=T Traj:=T positionsangstrom=T Step:=T 0=T Bead:=T pbc="F F F"
C      -45.87030000     -33.63860000     -73.93300000
C      -46.50090000     -34.48040000     -73.04680000
C      -47.42960000     -34.02770000     -72.09120000
C      -47.86400000     -32.73120000     -72.22460000
C      -47.18430000     -31.86300000     -73.08620000
C      -46.22180000     -32.31720000     -73.93330000
H      -45.06830000     -34.00260000     -74.54070000
H      -47.96310000     -34.66580000     -71.41000000
H      -47.50010000     -30.83410000     -73.09050000
H      -45.70230000     -31.63030000     -74.56260000
C      -48.83540000     -32.20450000     -71.18390000
H      -49.45450000     -32.92130000     -70.72720000
H      -49.35810000     -31.39210000     -71.56760000
C      -45.98410000     -35.92280000     -73.02430000
H      -46.39260000     -36.56130000     -73.77720000
H      -44.85140000     -35.95370000     -73.15950000
S      -47.86470000     -31.39800000     -69.70500000
S      -46.24290000     -36.94310000     -71.50810000
C      -47.05770000     -32.80680000     -68.90260000
H      -47.53600000     -32.97690000     -67.86970000
H      -47.16130000     -33.78680000     -69.42810000
C      -44.63550000     -36.92100000     -70.53510000
H      -43.81900000     -37.15050000     -71.17910000
H      -44.70100000     -37.79170000     -69.82770000
C      -44.44960000     -35.55500000     -69.77730000
H      -45.45010000     -35.20700000     -69.54750000
H      -44.03060000     -35.64690000     -68.79340000
C      -45.59200000     -32.50460000     -68.66290000
H      -45.12720000     -33.34070000     -68.19400000
H      -45.52990000     -31.68830000     -67.97570000
C      -44.66260000     -32.11910000     -69.85880000
C      -44.49260000     -30.82890000     -70.26590000
C      -43.86980000     -33.11570000     -70.54890000
H      -45.07260000     -30.04650000     -69.88500000
C      -42.98790000     -32.39010000     -71.37820000
C      -43.69910000     -34.56050000     -70.64650000
C      -42.63440000     -34.86360000     -71.50240000
S      -43.17680000     -30.66700000     -71.48020000
S      -41.91900000     -33.44300000     -72.23960000
H      -42.30380000     -35.88820000     -71.66880000
