40
Properties=species:S:1:pos:R:3 #=T CELL(abcABC):=T 1.889726e+02=T 90.00000=T Traj:=T positionsangstrom=T Step:=T 0=T Bead:=T pbc="F F F"
C      -45.83350000     -33.53720000     -73.80020000
C      -46.49700000     -34.44770000     -72.94310000
C      -47.53630000     -33.99940000     -72.10780000
C      -47.87740000     -32.63350000     -72.04560000
C      -47.20000000     -31.79380000     -72.91830000
C      -46.18680000     -32.21380000     -73.83150000
H      -44.98190000     -33.84900000     -74.44890000
H      -48.03010000     -34.69010000     -71.39620000
H      -47.46840000     -30.72500000     -72.90590000
H      -45.65210000     -31.49450000     -74.36410000
C      -48.85480000     -32.21230000     -71.03560000
H      -49.45840000     -33.14400000     -70.63950000
H      -49.58300000     -31.56310000     -71.54380000
C      -46.03670000     -35.86450000     -73.02670000
H      -46.62380000     -36.20370000     -73.91170000
H      -44.99160000     -35.86120000     -73.33910000
S      -47.92700000     -31.38770000     -69.63090000
S      -46.27770000     -36.94350000     -71.57110000
C      -47.05760000     -32.93210000     -69.06200000
H      -47.54890000     -33.47690000     -68.27600000
H      -47.02400000     -33.57940000     -69.89570000
C      -44.68970000     -36.89430000     -70.52980000
H      -43.94530000     -37.25220000     -71.23310000
H      -44.89970000     -37.69060000     -69.83090000
C      -44.32050000     -35.58240000     -69.86080000
H      -45.24250000     -35.09060000     -69.47580000
H      -43.74480000     -35.86320000     -68.97510000
C      -45.58700000     -32.53370000     -68.68210000
H      -45.26670000     -33.38470000     -68.02940000
H      -45.65080000     -31.62270000     -68.00740000
C      -44.63060000     -32.27850000     -69.90570000
C      -44.48020000     -30.96640000     -70.24660000
C      -43.77600000     -33.16210000     -70.63760000
H      -44.97190000     -30.19810000     -69.75310000
C      -42.98860000     -32.40630000     -71.54290000
C      -43.48410000     -34.55840000     -70.62820000
C      -42.47280000     -34.88660000     -71.53030000
S      -43.34260000     -30.63120000     -71.54090000
S      -41.81760000     -33.46420000     -72.26920000
H      -42.29830000     -35.95140000     -71.84160000
