40
Properties=species:S:1:pos:R:3 #=T CELL(abcABC):=T 1.889726e+02=T 90.00000=T Traj:=T positionsangstrom=T Step:=T 0=T Bead:=T pbc="F F F"
C      -45.73940000     -33.79400000     -74.04750000
C      -46.25500000     -34.62300000     -73.04460000
C      -47.21890000     -34.12580000     -72.14320000
C      -47.62310000     -32.77690000     -72.19860000
C      -47.12770000     -32.01100000     -73.28650000
C      -46.15720000     -32.45760000     -74.18610000
H      -45.07790000     -34.15730000     -74.77140000
H      -47.53620000     -34.78410000     -71.37700000
H      -47.49130000     -31.00390000     -73.43070000
H      -45.79920000     -31.86640000     -75.07360000
C      -48.66520000     -32.27950000     -71.28110000
H      -49.33560000     -33.08700000     -70.88630000
H      -49.40970000     -31.55820000     -71.80980000
C      -45.87410000     -36.08380000     -72.95850000
H      -46.41840000     -36.68620000     -73.73280000
H      -44.79940000     -36.26160000     -73.13560000
S      -48.03970000     -31.33310000     -69.77870000
S      -46.33920000     -36.94130000     -71.36830000
C      -47.01700000     -32.69300000     -69.01310000
H      -47.65160000     -32.95300000     -68.19510000
H      -46.91910000     -33.55120000     -69.72480000
C      -44.81620000     -36.84860000     -70.33050000
H      -43.95030000     -37.12130000     -70.98080000
H      -44.96840000     -37.59690000     -69.52030000
C      -44.52890000     -35.44270000     -69.66070000
H      -45.37880000     -34.83280000     -69.27020000
H      -43.85560000     -35.59260000     -68.74970000
C      -45.53830000     -32.34670000     -68.59100000
H      -45.21820000     -33.27290000     -68.05300000
H      -45.51060000     -31.51890000     -67.83770000
C      -44.58820000     -32.04440000     -69.73330000
C      -44.35910000     -30.76010000     -70.12700000
C      -43.90500000     -33.05410000     -70.55630000
H      -44.88340000     -29.86820000     -69.83660000
C      -43.10520000     -32.37550000     -71.49290000
C      -43.73410000     -34.50860000     -70.58070000
C      -42.63090000     -34.85210000     -71.36120000
S      -43.21580000     -30.62570000     -71.43570000
S      -42.03570000     -33.46440000     -72.33440000
H      -42.19590000     -35.83050000     -71.42930000
