40
Properties=species:S:1:pos:R:3 #=T CELL(abcABC):=T 1.889726e+02=T 90.00000=T Traj:=T positionsangstrom=T Step:=T 0=T Bead:=T pbc="F F F"
C      -46.46160000     -36.54940000     -73.93400000
C      -45.24880000     -35.87210000     -73.78650000
C      -44.53260000     -36.06220000     -72.59690000
C      -45.11190000     -36.78990000     -71.55190000
C      -46.41720000     -37.26830000     -71.68190000
C      -47.08600000     -37.18190000     -72.89090000
H      -47.00130000     -36.21810000     -74.81870000
H      -43.51900000     -35.62880000     -72.67620000
H      -46.91730000     -37.81850000     -70.86030000
H      -48.03610000     -37.59910000     -72.98070000
C      -44.26820000     -37.25190000     -70.38160000
H      -43.25240000     -37.24190000     -70.72910000
H      -44.57390000     -38.29560000     -70.11340000
C      -44.73600000     -34.95470000     -74.92970000
H      -44.23340000     -35.54470000     -75.73940000
H      -45.69680000     -34.54990000     -75.45050000
S      -44.38440000     -36.25920000     -68.83800000
S      -43.60350000     -33.64940000     -74.55740000
C      -45.54260000     -34.90830000     -69.35800000
H      -45.97570000     -35.27520000     -70.26510000
H      -46.34020000     -34.72030000     -68.62030000
C      -44.54230000     -32.55830000     -73.35460000
H      -45.25950000     -33.19670000     -72.80390000
H      -45.22590000     -31.98170000     -74.04550000
C      -43.72590000     -31.70160000     -72.44860000
H      -43.08600000     -32.37870000     -71.83780000
H      -43.00510000     -31.04250000     -72.98350000
C      -44.78060000     -33.61390000     -69.77670000
H      -44.46460000     -33.72810000     -70.81700000
H      -43.83020000     -33.41400000     -69.28610000
C      -45.61310000     -32.38490000     -69.59590000
C      -46.47770000     -32.14800000     -68.57510000
C      -45.47160000     -31.23820000     -70.42010000
H      -46.58000000     -32.68270000     -67.68620000
C      -46.27560000     -30.16420000     -69.96370000
C      -44.71870000     -30.84880000     -71.62460000
C      -44.86980000     -29.52120000     -71.97680000
S      -47.16930000     -30.51160000     -68.51250000
S      -46.07020000     -28.69430000     -70.89080000
H      -44.38320000     -28.99950000     -72.79410000
