40
Properties=species:S:1:pos:R:3 #=T CELL(abcABC):=T 1.889726e+02=T 90.00000=T Traj:=T positionsangstrom=T Step:=T 0=T Bead:=T pbc="F F F"
C      -45.28730000     -34.04280000     -73.65110000
C      -46.10210000     -34.85950000     -72.90390000
C      -47.19960000     -34.25200000     -72.28410000
C      -47.44610000     -32.91060000     -72.43330000
C      -46.65300000     -32.10710000     -73.25310000
C      -45.55080000     -32.69020000     -73.90930000
H      -44.36920000     -34.55950000     -74.06570000
H      -47.91300000     -34.80050000     -71.59270000
H      -46.92140000     -31.07620000     -73.35020000
H      -44.90420000     -32.08340000     -74.49020000
C      -48.54460000     -32.24360000     -71.58810000
H      -49.32310000     -32.96530000     -71.24800000
H      -48.95650000     -31.34250000     -72.05530000
C      -45.80010000     -36.28240000     -72.73360000
H      -46.43570000     -36.92970000     -73.33560000
H      -44.76410000     -36.56250000     -73.11530000
S      -47.96800000     -31.36350000     -70.05840000
S      -46.09790000     -37.11390000     -71.10020000
C      -47.20120000     -32.78460000     -69.15940000
H      -47.79520000     -33.21600000     -68.34520000
H      -47.08920000     -33.56280000     -69.89510000
C      -44.74460000     -36.65850000     -69.94750000
H      -43.75380000     -37.03390000     -70.33110000
H      -44.93780000     -37.15690000     -68.96980000
C      -44.64270000     -35.16700000     -69.66330000
H      -45.66480000     -34.75220000     -69.48510000
H      -44.08180000     -35.04420000     -68.65820000
C      -45.79390000     -32.37280000     -68.63840000
H      -45.45480000     -33.30930000     -68.10370000
H      -45.88920000     -31.60320000     -67.85520000
C      -44.85180000     -31.91430000     -69.77550000
C      -44.56950000     -30.65440000     -70.14800000
C      -44.09920000     -32.84440000     -70.63640000
H      -44.91020000     -29.68040000     -69.71470000
C      -43.28440000     -32.23960000     -71.56110000
C      -43.92540000     -34.25790000     -70.56710000
C      -42.93900000     -34.66120000     -71.44430000
S      -43.28420000     -30.54390000     -71.40160000
S      -42.38940000     -33.39910000     -72.51230000
H      -42.72100000     -35.68650000     -71.77890000
