40
Properties=species:S:1:pos:R:3 #=T CELL(abcABC):=T 1.889726e+02=T 90.00000=T Traj:=T positionsangstrom=T Step:=T 0=T Bead:=T pbc="F F F"
C      -45.20990000     -34.21960000     -73.70230000
C      -46.01930000     -34.96060000     -72.85840000
C      -47.13980000     -34.34350000     -72.26260000
C      -47.35300000     -32.99010000     -72.44060000
C      -46.42690000     -32.22170000     -73.14720000
C      -45.33100000     -32.80910000     -73.76480000
H      -44.51710000     -34.78560000     -74.29070000
H      -47.83780000     -34.86260000     -71.62330000
H      -46.70120000     -31.17270000     -73.23630000
H      -44.74050000     -32.20800000     -74.42840000
C      -48.56240000     -32.32490000     -71.90950000
H      -49.40710000     -33.03810000     -71.75120000
H      -48.95230000     -31.60650000     -72.63420000
C      -45.76000000     -36.47360000     -72.71700000
H      -46.38940000     -37.01720000     -73.36550000
H      -44.64300000     -36.63010000     -72.89020000
S      -48.04350000     -31.34310000     -70.37690000
S      -46.16770000     -37.07630000     -70.98760000
C      -47.22890000     -32.58610000     -69.27340000
H      -47.98740000     -32.94340000     -68.58340000
H      -46.90710000     -33.42150000     -69.98800000
C      -44.60030000     -36.77050000     -70.00970000
H      -43.78290000     -37.23420000     -70.53970000
H      -44.74250000     -37.32330000     -69.06200000
C      -44.42530000     -35.26570000     -69.59600000
H      -45.37420000     -34.98420000     -69.20270000
H      -43.72080000     -35.25910000     -68.77080000
C      -45.93740000     -32.18740000     -68.57240000
H      -45.58620000     -32.99760000     -67.93420000
H      -46.06760000     -31.35790000     -67.90620000
C      -44.81810000     -31.84940000     -69.62870000
C      -44.56630000     -30.58830000     -70.00490000
C      -44.07680000     -32.83870000     -70.42380000
H      -45.15000000     -29.68760000     -69.64810000
C      -43.31960000     -32.21390000     -71.40650000
C      -43.92090000     -34.27160000     -70.56070000
C      -43.06180000     -34.64470000     -71.56730000
S      -43.55000000     -30.48530000     -71.43050000
S      -42.32880000     -33.25780000     -72.41110000
H      -42.68840000     -35.69700000     -71.66490000
