40
Properties=species:S:1:pos:R:3 #=T CELL(abcABC):=T 1.889726e+02=T 90.00000=T Traj:=T positionsangstrom=T Step:=T 0=T Bead:=T pbc="F F F"
C      -46.53040000     -36.18640000     -73.97750000
C      -45.27610000     -35.78920000     -73.80000000
C      -44.52700000     -36.14300000     -72.69750000
C      -45.13900000     -36.89810000     -71.67250000
C      -46.43320000     -37.42460000     -71.94100000
C      -47.12000000     -37.05320000     -73.05540000
H      -47.04450000     -35.78860000     -74.90210000
H      -43.58340000     -35.70480000     -72.69550000
H      -46.83690000     -38.15430000     -71.20040000
H      -48.17790000     -37.36140000     -73.19630000
C      -44.28380000     -37.24160000     -70.53990000
H      -43.22900000     -37.11950000     -70.81450000
H      -44.37990000     -38.30720000     -70.32270000
C      -44.57650000     -35.08400000     -74.96170000
H      -43.90440000     -35.75050000     -75.46510000
H      -45.37350000     -34.73630000     -75.56710000
S      -44.50090000     -36.43160000     -68.90930000
S      -43.56560000     -33.59580000     -74.36720000
C      -45.48860000     -34.88900000     -69.06480000
H      -46.43260000     -35.01790000     -69.54220000
H      -45.71040000     -34.60800000     -67.98240000
C      -44.67460000     -32.70360000     -73.29240000
H      -45.18430000     -33.25160000     -72.50760000
H      -45.42820000     -32.20420000     -73.87900000
C      -43.87300000     -31.61550000     -72.57150000
H      -43.11860000     -32.10660000     -71.98520000
H      -43.27050000     -30.93120000     -73.31080000
C      -44.70150000     -33.62740000     -69.74580000
H      -44.43630000     -33.85990000     -70.81680000
H      -43.72220000     -33.57960000     -69.26670000
C      -45.41020000     -32.34620000     -69.57830000
C      -46.32400000     -32.17880000     -68.57740000
C      -45.37680000     -31.17320000     -70.43090000
H      -46.70690000     -32.98590000     -67.95650000
C      -46.21980000     -30.13360000     -69.90170000
C      -44.72960000     -30.69880000     -71.65920000
C      -45.09270000     -29.37730000     -71.98350000
S      -47.09640000     -30.63110000     -68.51030000
S      -46.10580000     -28.62810000     -70.79490000
H      -44.75500000     -28.78510000     -72.81350000
