40
Properties=species:S:1:pos:R:3 #=T CELL(abcABC):=T 1.889726e+02=T 90.00000=T Traj:=T positionsangstrom=T Step:=T 0=T Bead:=T pbc="F F F"
C      -44.59330000     -34.54420000     -73.19590000
C      -45.69830000     -35.24020000     -72.71060000
C      -46.96440000     -34.61970000     -72.82250000
C      -47.07720000     -33.35310000     -73.32930000
C      -45.97520000     -32.63210000     -73.80430000
C      -44.76570000     -33.24850000     -73.71200000
H      -43.65890000     -34.99730000     -73.13290000
H      -47.92940000     -35.22310000     -72.58810000
H      -46.06330000     -31.57260000     -74.07700000
H      -43.91780000     -32.64350000     -74.01540000
C      -48.38800000     -32.66590000     -73.20860000
H      -49.36030000     -33.19490000     -73.10370000
H      -48.66460000     -31.94940000     -74.05820000
C      -45.59610000     -36.69720000     -72.21500000
H      -46.19810000     -37.41610000     -72.82020000
H      -44.46700000     -37.02170000     -72.19860000
S      -48.11910000     -31.48010000     -71.82260000
S      -46.29170000     -36.99190000     -70.44980000
C      -47.71960000     -32.45770000     -70.33150000
H      -48.62270000     -32.52300000     -69.77040000
H      -47.40420000     -33.51260000     -70.67750000
C      -45.10560000     -36.31110000     -69.27170000
H      -44.08820000     -36.60420000     -69.59330000
H      -45.28950000     -36.86670000     -68.38760000
C      -45.21180000     -34.79460000     -69.08160000
H      -46.12900000     -34.55850000     -69.53860000
H      -45.21630000     -34.50660000     -68.05370000
C      -46.69760000     -31.73280000     -69.46920000
H      -46.50970000     -32.31110000     -68.54010000
H      -47.03450000     -30.72390000     -69.14360000
C      -45.34930000     -31.62250000     -70.14770000
C      -44.93610000     -30.38770000     -70.70140000
C      -44.29120000     -32.58860000     -70.13640000
H      -45.59220000     -29.60860000     -71.00260000
C      -43.18560000     -32.08730000     -70.80080000
C      -44.17740000     -33.98760000     -69.83920000
C      -42.94140000     -34.49910000     -70.23300000
S      -43.35800000     -30.49070000     -71.41960000
S      -41.86840000     -33.28120000     -70.97310000
H      -42.53270000     -35.46580000     -70.15170000
