40
Properties=species:S:1:pos:R:3 #=T CELL(abcABC):=T 1.889726e+02=T 90.00000=T Traj:=T positionsangstrom=T Step:=T 0=T Bead:=T pbc="F F F"
C      -43.66970000     -34.72340000     -72.85200000
C      -44.90770000     -35.14190000     -72.39490000
C      -46.09970000     -34.47540000     -72.76280000
C      -46.04160000     -33.33010000     -73.64080000
C      -44.73830000     -32.88570000     -74.01050000
C      -43.58700000     -33.52050000     -73.61450000
H      -42.72200000     -35.25890000     -72.49330000
H      -46.98550000     -34.93590000     -72.53520000
H      -44.60400000     -32.00530000     -74.67600000
H      -42.56560000     -33.16360000     -73.89350000
C      -47.29930000     -32.81820000     -74.14570000
H      -48.03480000     -33.58900000     -74.15420000
H      -47.28500000     -32.45050000     -75.18940000
C      -45.03730000     -36.45290000     -71.55170000
H      -45.01850000     -37.36220000     -72.09900000
H      -44.14320000     -36.43070000     -70.87570000
S      -47.92350000     -31.37520000     -73.10580000
S      -46.54360000     -36.64090000     -70.47770000
C      -48.14390000     -32.26850000     -71.50700000
H      -49.23970000     -32.13330000     -71.20430000
H      -48.03290000     -33.39160000     -71.60060000
C      -46.14820000     -36.06270000     -68.72090000
H      -45.14950000     -36.40290000     -68.44550000
H      -46.94420000     -36.45690000     -68.02970000
C      -46.12230000     -34.58280000     -68.65770000
H      -47.09550000     -34.20320000     -69.10640000
H      -45.99690000     -34.32810000     -67.61580000
C      -47.32690000     -31.75610000     -70.31930000
H      -47.56440000     -32.39490000     -69.46100000
H      -47.63260000     -30.71740000     -70.10000000
C      -45.80580000     -31.68710000     -70.46460000
C      -45.24350000     -30.52340000     -70.94960000
C      -44.84070000     -32.69190000     -70.07970000
H      -45.79990000     -29.70470000     -71.34660000
C      -43.51310000     -32.24420000     -70.42110000
C      -44.85270000     -33.95380000     -69.31390000
C      -43.63360000     -34.48380000     -69.25190000
S      -43.47010000     -30.67700000     -71.16210000
S      -42.33780000     -33.51010000     -70.02690000
H      -43.38640000     -35.48880000     -68.80780000
