40
Properties=species:S:1:pos:R:3 #=T CELL(abcABC):=T 1.889726e+02=T 90.00000=T Traj:=T positionsangstrom=T Step:=T 0=T Bead:=T pbc="F F F"
C      -43.76540000     -34.90900000     -72.96790000
C      -45.04480000     -35.34930000     -72.46900000
C      -46.17110000     -34.57110000     -72.76570000
C      -46.05660000     -33.32230000     -73.39720000
C      -44.84660000     -32.91410000     -73.95940000
C      -43.71560000     -33.83320000     -73.83910000
H      -42.94870000     -35.55120000     -72.87790000
H      -47.17520000     -34.84050000     -72.39400000
H      -44.69020000     -32.05550000     -74.60380000
H      -42.77210000     -33.43640000     -74.24750000
C      -47.33940000     -32.58030000     -73.81740000
H      -48.16310000     -33.27520000     -74.00480000
H      -47.15000000     -32.05380000     -74.72530000
C      -45.15050000     -36.62470000     -71.71350000
H      -45.36970000     -37.45040000     -72.42620000
H      -44.23070000     -36.93470000     -71.18730000
S      -47.83380000     -31.40310000     -72.53230000
S      -46.63500000     -36.69270000     -70.46440000
C      -47.95550000     -32.38480000     -70.98770000
H      -48.98140000     -32.48780000     -70.74660000
H      -47.68580000     -33.43800000     -71.30940000
C      -45.86770000     -36.09520000     -68.99530000
H      -44.81640000     -36.44360000     -68.83280000
H      -46.45490000     -36.48910000     -68.13950000
C      -45.91270000     -34.49150000     -68.86060000
H      -46.92880000     -34.21520000     -69.03300000
H      -45.93480000     -34.24370000     -67.74390000
C      -47.20640000     -31.77400000     -69.83410000
H      -47.33990000     -32.22080000     -68.85850000
H      -47.61460000     -30.77550000     -69.73390000
C      -45.79100000     -31.54860000     -70.25880000
C      -45.30800000     -30.48420000     -70.96700000
C      -44.74420000     -32.52060000     -70.10850000
H      -45.99320000     -29.65290000     -71.23360000
C      -43.56850000     -32.18660000     -70.67740000
C      -44.74230000     -33.84230000     -69.53850000
C      -43.52760000     -34.38280000     -69.47980000
S      -43.65340000     -30.65660000     -71.46690000
S      -42.28450000     -33.35510000     -70.32970000
H      -43.30480000     -35.36780000     -69.13130000
