40
Properties=species:S:1:pos:R:3 #=T CELL(abcABC):=T 1.889726e+02=T 90.00000=T Traj:=T positionsangstrom=T Step:=T 0=T Bead:=T pbc="F F F"
C      -43.59190000     -34.56260000     -72.21970000
C      -44.74330000     -35.27150000     -72.31800000
C      -45.75960000     -34.94070000     -73.34990000
C      -45.64120000     -33.75830000     -74.05490000
C      -44.52060000     -32.94270000     -73.83970000
C      -43.48220000     -33.39760000     -73.03810000
H      -42.79490000     -35.00990000     -71.59270000
H      -46.65620000     -35.49850000     -73.45570000
H      -44.57370000     -31.98330000     -74.28960000
H      -42.59560000     -32.79080000     -72.91610000
C      -46.81900000     -33.21650000     -74.82100000
H      -47.65950000     -33.86990000     -74.89130000
H      -46.59190000     -32.82160000     -75.86180000
C      -44.83530000     -36.71060000     -71.62880000
H      -44.62370000     -37.52030000     -72.39450000
H      -44.13280000     -36.64650000     -70.84020000
S      -47.53770000     -31.66030000     -73.78490000
S      -46.50450000     -37.17110000     -70.75560000
C      -47.79300000     -32.68790000     -72.20750000
H      -48.83900000     -33.08730000     -72.24770000
H      -47.23500000     -33.58860000     -72.30160000
C      -46.32900000     -36.10390000     -69.23050000
H      -45.36990000     -36.35010000     -68.81730000
H      -47.11360000     -36.45770000     -68.56450000
C      -46.52190000     -34.59250000     -69.49790000
H      -47.11160000     -34.42810000     -70.40670000
H      -47.17850000     -34.29580000     -68.67890000
C      -47.47450000     -31.84290000     -70.91640000
H      -47.79830000     -32.43280000     -70.08940000
H      -48.12590000     -30.91470000     -70.93630000
C      -45.93630000     -31.54400000     -70.67040000
C      -45.23150000     -30.39640000     -71.22030000
C      -45.08290000     -32.36930000     -69.87900000
H      -45.79760000     -29.66400000     -71.75020000
C      -43.80900000     -31.87200000     -69.75050000
C      -45.20280000     -33.69410000     -69.28270000
C      -44.00650000     -34.07710000     -68.65780000
S      -43.54940000     -30.32350000     -70.61420000
S      -42.77370000     -32.84220000     -68.69000000
H      -43.87920000     -35.10680000     -68.18090000
