40
Properties=species:S:1:pos:R:3 #=T CELL(abcABC):=T 1.889726e+02=T 90.00000=T Traj:=T positionsangstrom=T Step:=T 0=T Bead:=T pbc="F F F"
C      -43.29500000     -36.68020000     -70.17720000
C      -44.20220000     -36.57610000     -71.28420000
C      -45.50980000     -36.30280000     -70.97680000
C      -45.96690000     -36.20890000     -69.62620000
C      -45.07750000     -36.33630000     -68.53020000
C      -43.75140000     -36.65250000     -68.89080000
H      -42.20530000     -36.89180000     -70.35920000
H      -46.21600000     -36.07630000     -71.75650000
H      -45.39510000     -36.20870000     -67.52040000
H      -42.98500000     -36.74480000     -68.16760000
C      -47.40910000     -35.92050000     -69.41010000
H      -47.90280000     -36.80050000     -68.84270000
H      -47.90230000     -35.91180000     -70.43870000
C      -43.54460000     -36.75530000     -72.60530000
H      -42.53140000     -36.26360000     -72.48650000
H      -43.49950000     -37.84550000     -72.77940000
S      -47.68360000     -34.30390000     -68.55220000
S      -44.64610000     -36.10110000     -73.91540000
C      -47.13730000     -33.07840000     -69.78610000
H      -47.50050000     -33.32760000     -70.81290000
H      -47.65360000     -32.15780000     -69.47360000
C      -44.31250000     -34.26360000     -73.70140000
H      -44.02180000     -33.99830000     -74.65860000
H      -43.54150000     -34.30000000     -72.93130000
C      -45.55990000     -33.55810000     -73.04280000
H      -46.44020000     -33.77650000     -73.67660000
H      -45.81110000     -33.89010000     -72.04040000
C      -45.65410000     -32.69300000     -69.63020000
H      -45.04890000     -33.54940000     -69.92440000
H      -45.53960000     -32.56190000     -68.58680000
C      -45.36240000     -31.43530000     -70.34800000
C      -45.21750000     -30.22820000     -69.67110000
C      -45.35490000     -31.27950000     -71.82810000
H      -44.94260000     -30.20330000     -68.64930000
C      -45.16370000     -29.91890000     -72.13020000
C      -45.33690000     -32.11420000     -73.02710000
C      -45.25490000     -31.33150000     -74.15190000
S      -44.84860000     -28.94080000     -70.75930000
S      -44.99390000     -29.59080000     -73.83980000
H      -45.19010000     -31.70870000     -75.14290000
