40
Properties=species:S:1:pos:R:3 #=T CELL(abcABC):=T 1.889726e+02=T 90.00000=T Traj:=T positionsangstrom=T Step:=T 0=T Bead:=T pbc="F F F"
C      -43.24040000     -34.80670000     -70.99170000
C      -44.14760000     -35.62280000     -71.62430000
C      -44.75190000     -35.12990000     -72.78290000
C      -44.21740000     -33.97810000     -73.43430000
C      -43.30760000     -33.18370000     -72.73620000
C      -42.82130000     -33.63060000     -71.48480000
H      -42.87620000     -35.08370000     -70.03730000
H      -45.37670000     -35.78680000     -73.38430000
H      -42.91200000     -32.28580000     -73.20220000
H      -42.06750000     -32.92690000     -71.01880000
C      -44.82900000     -33.57860000     -74.76650000
H      -45.37630000     -34.43570000     -75.24190000
H      -44.00860000     -33.37780000     -75.51420000
C      -44.47890000     -37.04080000     -71.11690000
H      -44.22230000     -37.88830000     -71.77550000
H      -44.01130000     -37.20500000     -70.17150000
S      -45.86730000     -32.13330000     -74.64500000
S      -46.33160000     -37.24270000     -71.01480000
C      -47.14020000     -32.85980000     -73.41280000
H      -48.01770000     -33.10270000     -74.01670000
H      -46.68000000     -33.74680000     -72.87810000
C      -46.80580000     -36.06250000     -69.62080000
H      -45.92090000     -35.96610000     -69.00670000
H      -47.55730000     -36.49740000     -68.99500000
C      -47.15350000     -34.64570000     -70.17650000
H      -47.26570000     -34.59830000     -71.23550000
H      -48.18270000     -34.44700000     -69.74440000
C      -47.59340000     -31.72650000     -72.31690000
H      -48.44330000     -32.23740000     -71.80540000
H      -47.96400000     -30.84680000     -72.84450000
C      -46.50970000     -31.25970000     -71.35010000
C      -45.93490000     -30.04130000     -71.30120000
C      -45.98930000     -32.20830000     -70.36020000
H      -46.19370000     -29.17230000     -71.89130000
C      -44.95540000     -31.56080000     -69.63980000
C      -46.22920000     -33.54330000     -69.71440000
C      -45.33730000     -33.78870000     -68.67110000
S      -44.65160000     -29.86960000     -70.17290000
S      -44.20040000     -32.43830000     -68.33450000
H      -45.13440000     -34.63860000     -68.07780000
