40
Properties=species:S:1:pos:R:3 #=T CELL(abcABC):=T 1.889726e+02=T 90.00000=T Traj:=T positionsangstrom=T Step:=T 0=T Bead:=T pbc="F F F"
C      -43.05920000     -34.83180000     -71.21090000
C      -44.06780000     -35.56940000     -71.86540000
C      -44.64850000     -35.09250000     -73.01070000
C      -44.30280000     -33.87520000     -73.56600000
C      -43.32680000     -33.07490000     -72.87460000
C      -42.69920000     -33.60680000     -71.72730000
H      -42.49760000     -35.20050000     -70.38410000
H      -45.38630000     -35.62280000     -73.61620000
H      -42.98040000     -32.12360000     -73.33110000
H      -41.95060000     -33.02040000     -71.14100000
C      -45.08910000     -33.31780000     -74.79110000
H      -45.71680000     -34.07330000     -75.30860000
H      -44.43400000     -32.96430000     -75.62080000
C      -44.54560000     -36.89230000     -71.28230000
H      -44.31890000     -37.67790000     -71.96720000
H      -44.19060000     -37.05290000     -70.29020000
S      -46.19330000     -31.95800000     -74.15330000
S      -46.43860000     -37.13210000     -71.01310000
C      -47.51570000     -32.81160000     -73.20300000
H      -48.34450000     -32.95900000     -74.00030000
H      -47.13970000     -33.82460000     -73.13510000
C      -46.82350000     -35.96080000     -69.64360000
H      -46.26770000     -36.21290000     -68.71640000
H      -47.85900000     -36.33420000     -69.46080000
C      -46.97160000     -34.51210000     -70.10670000
H      -47.05870000     -34.54180000     -71.20710000
H      -47.91700000     -34.07770000     -69.80270000
C      -47.83660000     -32.10410000     -71.93170000
H      -48.30650000     -32.83410000     -71.31610000
H      -48.55950000     -31.27480000     -72.16150000
C      -46.57870000     -31.61410000     -71.15480000
C      -46.16610000     -30.35690000     -71.23070000
C      -45.75820000     -32.35870000     -70.24100000
H      -46.63470000     -29.66230000     -71.94770000
C      -44.68030000     -31.60240000     -69.74350000
C      -45.83610000     -33.63350000     -69.70070000
C      -44.87320000     -33.81950000     -68.73640000
S      -44.78370000     -29.98160000     -70.32470000
S      -43.81310000     -32.47610000     -68.46060000
H      -44.90130000     -34.74250000     -68.10890000
