40
Properties=species:S:1:pos:R:3 #=T CELL(abcABC):=T 1.889726e+02=T 90.00000=T Traj:=T positionsangstrom=T Step:=T 0=T Bead:=T pbc="F F F"
C      -43.02430000     -34.98640000     -71.36660000
C      -44.17880000     -35.52250000     -71.88900000
C      -44.95420000     -34.94780000     -72.90090000
C      -44.44120000     -33.80100000     -73.54420000
C      -43.27920000     -33.19050000     -72.99220000
C      -42.49480000     -33.82320000     -71.99580000
H      -42.50970000     -35.45550000     -70.52750000
H      -45.80790000     -35.46770000     -73.24570000
H      -42.81360000     -32.34840000     -73.49210000
H      -41.66000000     -33.32610000     -71.54530000
C      -45.06810000     -33.03750000     -74.71020000
H      -45.47540000     -33.80200000     -75.48100000
H      -44.27530000     -32.48510000     -75.13220000
C      -44.57320000     -36.85390000     -71.33050000
H      -44.15920000     -37.72050000     -71.99530000
H      -44.12680000     -37.06130000     -70.37880000
S      -46.32220000     -31.81460000     -74.12170000
S      -46.40460000     -37.13220000     -71.14950000
C      -47.35890000     -32.84010000     -72.99660000
H      -48.24370000     -33.13510000     -73.49410000
H      -46.86620000     -33.68180000     -72.55580000
C      -46.72730000     -36.15950000     -69.56760000
H      -45.96100000     -36.35040000     -68.89240000
H      -47.61410000     -36.65960000     -69.11650000
C      -47.07620000     -34.62640000     -69.61700000
H      -47.68220000     -34.41900000     -70.48670000
H      -47.71070000     -34.36880000     -68.73660000
C      -47.88210000     -32.03560000     -71.78090000
H      -48.49290000     -32.70750000     -71.10100000
H      -48.55720000     -31.25360000     -72.10940000
C      -46.68580000     -31.51400000     -71.02810000
C      -46.21370000     -30.27130000     -71.27210000
C      -45.84210000     -32.35420000     -70.13550000
H      -46.75320000     -29.48020000     -71.83770000
C      -44.75780000     -31.61450000     -69.69120000
C      -45.83730000     -33.68970000     -69.65890000
C      -44.76980000     -33.90960000     -68.81460000
S      -44.73230000     -30.01760000     -70.30390000
S      -43.65890000     -32.51400000     -68.74100000
H      -44.67260000     -34.98040000     -68.47650000
