40
Properties=species:S:1:pos:R:3 #=T CELL(abcABC):=T 1.889726e+02=T 90.00000=T Traj:=T positionsangstrom=T Step:=T 0=T Bead:=T pbc="F F F"
C      -46.73690000     -31.30590000     -67.95150000
C      -46.70940000     -31.71880000     -69.26760000
C      -45.70090000     -32.60520000     -69.72640000
C      -44.81260000     -33.17640000     -68.80450000
C      -44.80820000     -32.68420000     -67.45960000
C      -45.77460000     -31.75820000     -67.05640000
H      -47.45550000     -30.57200000     -67.65380000
H      -45.73720000     -32.91580000     -70.74040000
H      -44.18210000     -33.26330000     -66.80610000
H      -45.89600000     -31.29810000     -66.02030000
C      -43.83660000     -34.21120000     -69.22100000
H      -44.20750000     -34.95540000     -69.86570000
H      -43.44120000     -34.59370000     -68.28400000
C      -47.79540000     -31.30250000     -70.25530000
H      -48.31010000     -32.20520000     -70.63710000
H      -48.44120000     -30.59960000     -69.78650000
S      -42.36720000     -33.28240000     -69.99530000
S      -46.98720000     -30.31970000     -71.64910000
C      -43.00080000     -32.23350000     -71.34960000
H      -44.02830000     -31.73790000     -71.18730000
H      -42.27370000     -31.38610000     -71.36440000
C      -47.43720000     -31.18330000     -73.20430000
H      -47.57510000     -30.41600000     -74.00360000
H      -48.28370000     -31.85400000     -72.94790000
C      -46.36280000     -32.16910000     -73.79280000
H      -46.55170000     -32.16240000     -74.87730000
H      -45.39890000     -31.65520000     -73.60480000
C      -43.00030000     -32.83800000     -72.81410000
H      -42.01620000     -32.97910000     -73.19120000
H      -43.54700000     -32.09400000     -73.47490000
C      -43.68030000     -34.14860000     -72.85940000
C      -43.05150000     -35.31330000     -72.47960000
C      -45.11560000     -34.38130000     -72.99840000
H      -41.99830000     -35.37240000     -72.31520000
C      -45.43650000     -35.74720000     -72.81930000
C      -46.31510000     -33.56310000     -73.25990000
C      -47.45190000     -34.35510000     -73.42130000
S      -44.10250000     -36.73210000     -72.42870000
S      -47.13840000     -36.02990000     -72.95590000
H      -48.48290000     -34.12390000     -73.60250000
