40
Properties=species:S:1:pos:R:3 #=T CELL(abcABC):=T 1.889726e+02=T 90.00000=T Traj:=T positionsangstrom=T Step:=T 0=T Bead:=T pbc="F F F"
C      -44.39960000     -35.18620000     -68.65020000
C      -43.47220000     -34.10340000     -68.69110000
C      -42.45570000     -34.11440000     -69.62850000
C      -42.43890000     -35.14210000     -70.63550000
C      -43.32060000     -36.26300000     -70.53550000
C      -44.40860000     -36.11850000     -69.65470000
H      -45.37870000     -35.10620000     -68.07230000
H      -41.60030000     -33.32190000     -69.63450000
H      -43.24510000     -36.86600000     -71.37080000
H      -45.18090000     -36.90140000     -69.79930000
C      -41.35300000     -35.14650000     -71.74630000
H      -41.28430000     -36.23800000     -72.13630000
H      -40.36500000     -34.74010000     -71.44110000
C      -43.47710000     -32.93660000     -67.67330000
H      -43.93460000     -33.31670000     -66.68190000
H      -42.44310000     -32.52930000     -67.47740000
S      -41.87640000     -34.07420000     -73.21960000
S      -44.23340000     -31.34560000     -68.35830000
C      -43.76650000     -34.41100000     -73.39630000
H      -44.02690000     -34.20000000     -74.46030000
H      -43.93340000     -35.48390000     -73.19070000
C      -45.64790000     -31.92340000     -69.36880000
H      -46.57580000     -31.83700000     -68.79020000
H      -45.63130000     -33.05700000     -69.60160000
C      -45.86670000     -31.01270000     -70.61900000
H      -46.11080000     -30.00840000     -70.26310000
H      -44.98830000     -31.00570000     -71.30310000
C      -44.63470000     -33.58150000     -72.44850000
H      -44.24900000     -32.54540000     -72.50580000
H      -44.46020000     -33.98340000     -71.46910000
C      -46.20120000     -33.57520000     -72.85790000
C      -46.73370000     -34.59300000     -73.62250000
C      -47.14450000     -32.62430000     -72.31490000
H      -46.23700000     -35.53790000     -74.04990000
C      -48.39330000     -32.78410000     -72.98200000
C      -47.09830000     -31.50270000     -71.42550000
C      -48.35120000     -30.95010000     -71.28000000
S      -48.37930000     -34.21510000     -73.98270000
S      -49.66710000     -31.79200000     -72.15890000
H      -48.59650000     -30.23420000     -70.56840000
