40
Properties=species:S:1:pos:R:3 #=T CELL(abcABC):=T 1.889726e+02=T 90.00000=T Traj:=T positionsangstrom=T Step:=T 0=T Bead:=T pbc="F F F"
C      -46.77730000     -31.24140000     -68.00190000
C      -46.81930000     -31.82290000     -69.27760000
C      -45.88200000     -32.84220000     -69.59050000
C      -44.82740000     -33.20480000     -68.68020000
C      -44.88610000     -32.61200000     -67.38730000
C      -45.88360000     -31.73420000     -67.08640000
H      -47.45570000     -30.42770000     -67.74210000
H      -45.88180000     -33.28780000     -70.62880000
H      -44.09460000     -32.83090000     -66.65730000
H      -45.93390000     -31.28530000     -66.08360000
C      -43.66210000     -34.05370000     -69.15650000
H      -44.08620000     -34.79820000     -69.92020000
H      -43.32960000     -34.70400000     -68.32130000
C      -47.77740000     -31.32310000     -70.33050000
H      -48.33170000     -32.11010000     -70.91320000
H      -48.53490000     -30.63940000     -69.89760000
S      -42.26380000     -33.14760000     -70.03190000
S      -47.03700000     -30.33660000     -71.73150000
C      -43.15350000     -32.17480000     -71.29690000
H      -44.19290000     -32.02120000     -71.02280000
H      -42.69000000     -31.22910000     -71.36840000
C      -47.45640000     -31.30320000     -73.22610000
H      -47.61790000     -30.57250000     -73.99690000
H      -48.41290000     -31.71330000     -73.12680000
C      -46.33580000     -32.14990000     -73.62980000
H      -46.29160000     -32.29030000     -74.74950000
H      -45.36140000     -31.74980000     -73.31950000
C      -43.04050000     -32.81450000     -72.78420000
H      -42.08440000     -32.63010000     -73.32810000
H      -43.65910000     -32.05680000     -73.31440000
C      -43.75180000     -34.10050000     -72.83980000
C      -43.04230000     -35.23260000     -72.59210000
C      -45.13040000     -34.41580000     -72.94200000
H      -41.97520000     -35.24140000     -72.46390000
C      -45.37000000     -35.77090000     -72.81640000
C      -46.29960000     -33.61160000     -73.15530000
C      -47.45710000     -34.37700000     -73.21730000
S      -43.98400000     -36.75750000     -72.52940000
S      -47.09820000     -36.10390000     -73.00710000
H      -48.38050000     -34.10890000     -73.58730000
