40
Properties=species:S:1:pos:R:3 #=T CELL(abcABC):=T 1.889726e+02=T 90.00000=T Traj:=T positionsangstrom=T Step:=T 0=T Bead:=T pbc="F F F"
C      -43.37680000     -34.91420000     -70.57530000
C      -44.09390000     -35.70830000     -71.44660000
C      -44.34020000     -35.34060000     -72.74290000
C      -43.88170000     -34.05330000     -73.27780000
C      -43.24550000     -33.23820000     -72.34580000
C      -42.97480000     -33.69010000     -71.07520000
H      -43.21230000     -35.31230000     -69.55210000
H      -44.64870000     -36.05750000     -73.48970000
H      -42.86090000     -32.31560000     -72.74760000
H      -42.55330000     -33.00920000     -70.35140000
C      -44.07200000     -33.56830000     -74.65140000
H      -44.38630000     -34.44410000     -75.33160000
H      -43.15940000     -33.28490000     -75.18890000
C      -44.73640000     -36.95540000     -70.90680000
H      -44.31730000     -37.89700000     -71.27450000
H      -44.53530000     -37.04300000     -69.86800000
S      -45.18630000     -32.13360000     -74.73860000
S      -46.56870000     -37.06430000     -70.96320000
C      -46.86310000     -32.75750000     -74.01420000
H      -47.64010000     -32.63950000     -74.77940000
H      -46.77780000     -33.73100000     -73.58490000
C      -47.35550000     -35.93620000     -69.73630000
H      -46.80610000     -35.93720000     -68.84840000
H      -48.29100000     -36.43920000     -69.46710000
C      -47.49360000     -34.43910000     -70.28260000
H      -47.62460000     -34.50120000     -71.39520000
H      -48.53890000     -34.20010000     -69.92790000
C      -47.28140000     -31.78360000     -72.83550000
H      -48.11980000     -32.27110000     -72.40090000
H      -47.65840000     -30.90030000     -73.25570000
C      -46.31980000     -31.52630000     -71.67270000
C      -45.63090000     -30.37730000     -71.74300000
C      -46.06830000     -32.22150000     -70.42180000
H      -45.64450000     -29.67480000     -72.56590000
C      -45.16510000     -31.48570000     -69.56900000
C      -46.46000000     -33.42480000     -69.74820000
C      -45.85480000     -33.64300000     -68.56990000
S      -44.55570000     -30.03240000     -70.32800000
S      -44.81390000     -32.30610000     -68.05610000
H      -45.81880000     -34.55950000     -68.04410000
