40
Properties=species:S:1:pos:R:3 #=T CELL(abcABC):=T 1.889726e+02=T 90.00000=T Traj:=T positionsangstrom=T Step:=T 0=T Bead:=T pbc="F F F"
C      -44.10050000     -34.69990000     -69.64480000
C      -44.65100000     -35.47660000     -70.70320000
C      -44.02560000     -35.38580000     -72.01880000
C      -43.02140000     -34.45390000     -72.30110000
C      -42.58950000     -33.60780000     -71.20760000
C      -43.10070000     -33.76660000     -69.91430000
H      -44.29710000     -34.88500000     -68.57070000
H      -44.30870000     -36.11470000     -72.79770000
H      -41.80340000     -32.87940000     -71.40460000
H      -42.74080000     -33.22290000     -69.11090000
C      -42.53390000     -34.29660000     -73.68500000
H      -42.73620000     -35.22270000     -74.22760000
H      -41.47570000     -34.13500000     -73.87530000
C      -45.72280000     -36.49670000     -70.45330000
H      -45.25490000     -37.47830000     -70.41940000
H      -46.12620000     -36.30140000     -69.48360000
S      -43.51670000     -32.87920000     -74.53580000
S      -47.03700000     -36.43770000     -71.79480000
C      -45.23340000     -33.13690000     -74.02820000
H      -45.73000000     -33.58750000     -74.84220000
H      -45.35460000     -33.86890000     -73.24750000
C      -48.33010000     -35.28520000     -71.22250000
H      -48.48510000     -35.37390000     -70.14970000
H      -49.30590000     -35.73400000     -71.61220000
C      -48.08880000     -33.83800000     -71.58760000
H      -47.70520000     -33.79230000     -72.56080000
H      -49.07830000     -33.42640000     -71.66250000
C      -45.93060000     -31.90000000     -73.48510000
H      -46.99780000     -32.05070000     -73.65210000
H      -45.58350000     -31.10470000     -74.09110000
C      -45.58600000     -31.58030000     -72.00770000
C      -44.67200000     -30.63190000     -71.74190000
C      -46.25920000     -32.10490000     -70.83340000
H      -44.06380000     -30.03500000     -72.35820000
C      -45.67380000     -31.60140000     -69.67090000
C      -47.32860000     -33.03670000     -70.55750000
C      -47.74380000     -33.00790000     -69.19370000
S      -44.32530000     -30.48190000     -69.99390000
S      -46.57270000     -32.06630000     -68.24720000
H      -48.55540000     -33.56450000     -68.73990000
