40
Properties=species:S:1:pos:R:3 #=T CELL(abcABC):=T 1.889726e+02=T 90.00000=T Traj:=T positionsangstrom=T Step:=T 0=T Bead:=T pbc="F F F"
C      -46.83100000     -31.34340000     -68.18980000
C      -46.80290000     -31.74980000     -69.49920000
C      -45.90600000     -32.74960000     -69.88960000
C      -44.95540000     -33.20420000     -68.98860000
C      -44.80650000     -32.54110000     -67.73920000
C      -45.79580000     -31.66640000     -67.25530000
H      -47.63810000     -30.61380000     -67.99070000
H      -45.96420000     -33.16070000     -70.90240000
H      -44.04030000     -33.02300000     -67.12010000
H      -45.68220000     -31.31310000     -66.26150000
C      -43.95390000     -34.21330000     -69.28920000
H      -44.28270000     -34.86240000     -70.14420000
H      -43.82160000     -34.88880000     -68.48920000
C      -47.87280000     -31.22090000     -70.39650000
H      -48.35110000     -31.97850000     -71.02900000
H      -48.61740000     -30.52430000     -69.94950000
S      -42.32810000     -33.43770000     -69.75530000
S      -46.95640000     -30.19050000     -71.63490000
C      -42.78730000     -32.38820000     -71.17500000
H      -43.83640000     -32.14020000     -70.87140000
H      -42.06460000     -31.51090000     -71.25150000
C      -47.10270000     -31.04690000     -73.24330000
H      -47.09500000     -30.22090000     -74.00920000
H      -48.09610000     -31.55420000     -73.32840000
C      -45.93780000     -31.99130000     -73.60210000
H      -45.86730000     -32.04850000     -74.75730000
H      -44.98680000     -31.58560000     -73.24710000
C      -42.78900000     -33.05290000     -72.55760000
H      -41.70220000     -33.35110000     -72.84470000
H      -43.05850000     -32.27950000     -73.29030000
C      -43.62350000     -34.34450000     -72.67100000
C      -43.17870000     -35.60280000     -72.32890000
C      -45.04600000     -34.43170000     -72.97710000
H      -42.14670000     -35.86460000     -72.12650000
C      -45.53900000     -35.67700000     -72.71100000
C      -46.13800000     -33.47250000     -73.24000000
C      -47.32920000     -34.09110000     -73.45250000
S      -44.34320000     -36.86990000     -72.33200000
S      -47.27490000     -35.81870000     -73.10100000
H      -48.32130000     -33.66640000     -73.75600000
