40
Properties=species:S:1:pos:R:3 #=T CELL(abcABC):=T 1.889726e+02=T 90.00000=T Traj:=T positionsangstrom=T Step:=T 0=T Bead:=T pbc="F F F"
C      -46.78350000     -31.24460000     -67.99640000
C      -46.78850000     -31.73470000     -69.30390000
C      -45.92790000     -32.77880000     -69.66690000
C      -44.90760000     -33.24800000     -68.83720000
C      -44.88650000     -32.75600000     -67.52280000
C      -45.88810000     -31.78930000     -67.07700000
H      -47.60020000     -30.55090000     -67.72860000
H      -45.90990000     -33.16570000     -70.63650000
H      -43.99970000     -33.05430000     -66.93850000
H      -45.91760000     -31.47410000     -66.06210000
C      -43.85690000     -34.12040000     -69.34540000
H      -44.23120000     -34.71560000     -70.19810000
H      -43.52810000     -34.81090000     -68.54190000
C      -47.75760000     -31.16890000     -70.36300000
H      -48.29050000     -32.05490000     -70.74420000
H      -48.60360000     -30.63500000     -69.91570000
S      -42.19870000     -33.39180000     -69.96050000
S      -46.98390000     -30.20360000     -71.67330000
C      -42.76570000     -32.21170000     -71.33460000
H      -43.69730000     -31.78090000     -70.99670000
H      -42.06570000     -31.43600000     -71.35220000
C      -47.28770000     -31.25270000     -73.19960000
H      -47.63230000     -30.57550000     -73.96870000
H      -48.19250000     -31.82440000     -72.98870000
C      -46.16890000     -32.10240000     -73.67300000
H      -46.18270000     -32.05650000     -74.73440000
H      -45.19830000     -31.74490000     -73.47050000
C      -42.88490000     -32.89670000     -72.68760000
H      -41.87240000     -33.17730000     -72.80170000
H      -43.13850000     -32.19830000     -73.50370000
C      -43.66870000     -34.20880000     -72.76700000
C      -43.06710000     -35.38630000     -72.39110000
C      -45.09730000     -34.36050000     -72.98370000
H      -42.14360000     -35.47610000     -71.94500000
C      -45.51320000     -35.69010000     -72.81770000
C      -46.27750000     -33.53550000     -73.23680000
C      -47.45440000     -34.23920000     -73.43730000
S      -44.23390000     -36.77380000     -72.37510000
S      -47.23080000     -35.96800000     -73.06360000
H      -48.50120000     -33.95740000     -73.64140000
