40
Properties=species:S:1:pos:R:3 #=T CELL(abcABC):=T 1.889726e+02=T 90.00000=T Traj:=T positionsangstrom=T Step:=T 0=T Bead:=T pbc="F F F"
C      -46.70430000     -30.69220000     -69.03280000
C      -46.65820000     -31.93290000     -69.80150000
C      -45.70510000     -32.89260000     -69.45660000
C      -44.69430000     -32.69500000     -68.44770000
C      -44.72000000     -31.39600000     -67.86050000
C      -45.77370000     -30.43150000     -68.09010000
H      -47.52300000     -29.92030000     -69.10260000
H      -45.74220000     -33.86880000     -69.88190000
H      -43.97710000     -31.16640000     -67.13480000
H      -45.78700000     -29.57200000     -67.43250000
C      -43.67020000     -33.73990000     -67.96530000
H      -44.17110000     -34.57490000     -67.43970000
H      -43.00130000     -33.27880000     -67.20020000
C      -47.67690000     -32.14950000     -70.85910000
H      -47.52290000     -33.20890000     -71.32960000
H      -48.71880000     -32.20800000     -70.55980000
S      -42.46320000     -34.48650000     -69.21810000
S      -47.69260000     -30.73550000     -72.13710000
C      -42.63670000     -33.18780000     -70.57070000
H      -43.50040000     -32.54550000     -70.39080000
H      -41.81270000     -32.49290000     -70.51910000
C      -46.00740000     -30.58560000     -72.82960000
H      -45.56090000     -29.79250000     -72.19740000
H      -46.06580000     -30.13460000     -73.85560000
C      -45.05330000     -31.78200000     -72.76700000
H      -44.12710000     -31.53070000     -73.32560000
H      -44.63150000     -31.94020000     -71.74300000
C      -42.60940000     -33.82130000     -71.95350000
H      -41.67490000     -34.43900000     -71.97360000
H      -42.61510000     -33.00390000     -72.62010000
C      -43.81280000     -34.74350000     -72.19230000
C      -43.72620000     -36.12330000     -71.98120000
C      -45.05320000     -34.35900000     -72.87460000
H      -42.88900000     -36.58330000     -71.48380000
C      -45.73830000     -35.50940000     -73.18480000
C      -45.68560000     -33.10270000     -73.22770000
C      -46.93420000     -33.33140000     -73.84390000
S      -45.10680000     -36.98190000     -72.58190000
S      -47.23080000     -35.02940000     -74.01980000
H      -47.77950000     -32.71900000     -74.12480000
