40
Properties=species:S:1:pos:R:3 #=T CELL(abcABC):=T 1.889726e+02=T 90.00000=T Traj:=T positionsangstrom=T Step:=T 0=T Bead:=T pbc="F F F"
C      -44.03580000     -37.28740000     -72.29600000
C      -44.68330000     -36.27040000     -72.95900000
C      -46.01950000     -35.94050000     -72.64370000
C      -46.80390000     -36.61040000     -71.64990000
C      -46.11940000     -37.75680000     -71.06290000
C      -44.81230000     -38.01080000     -71.39860000
H      -43.06800000     -37.55020000     -72.60680000
H      -46.56050000     -35.22690000     -73.32230000
H      -46.57200000     -38.33500000     -70.25100000
H      -44.36000000     -38.93920000     -71.01540000
C      -48.22150000     -36.21160000     -71.34820000
H      -48.99820000     -36.97940000     -71.49060000
H      -48.49310000     -35.35600000     -72.00690000
C      -44.15140000     -35.56030000     -74.22710000
H      -43.71530000     -36.24200000     -74.90010000
H      -44.96030000     -34.94230000     -74.71000000
S      -48.20720000     -35.45260000     -69.58290000
S      -42.69430000     -34.42750000     -73.99950000
C      -47.68390000     -33.64200000     -70.09130000
H      -48.10220000     -33.61410000     -71.10960000
H      -48.33620000     -33.03690000     -69.48120000
C      -43.17290000     -33.27370000     -72.66140000
H      -42.27170000     -32.71560000     -72.44330000
H      -43.37740000     -33.93790000     -71.80870000
C      -44.42690000     -32.44750000     -73.01050000
H      -44.49860000     -32.04930000     -74.02800000
H      -45.39120000     -32.97030000     -72.77680000
C      -46.21860000     -33.47040000     -70.06830000
H      -45.84870000     -34.11080000     -70.94280000
H      -45.70660000     -34.05110000     -69.30600000
C      -45.86140000     -32.06050000     -69.88480000
C      -46.46410000     -31.40340000     -68.75900000
C      -44.98490000     -31.24830000     -70.70220000
H      -47.13050000     -31.86950000     -67.96890000
C      -44.87050000     -29.95210000     -70.19550000
C      -44.39930000     -31.30970000     -71.99870000
C      -43.75950000     -30.16120000     -72.37670000
S      -45.74160000     -29.77490000     -68.62670000
S      -43.98780000     -28.80570000     -71.18740000
H      -43.33020000     -30.12800000     -73.36260000
