40
Properties=species:S:1:pos:R:3 #=T CELL(abcABC):=T 1.889726e+02=T 90.00000=T Traj:=T positionsangstrom=T Step:=T 0=T Bead:=T pbc="F F F"
C      -46.49320000     -32.17130000     -67.44740000
C      -46.11080000     -33.41730000     -67.95150000
C      -47.06610000     -34.07180000     -68.74410000
C      -48.25670000     -33.52210000     -69.16500000
C      -48.56880000     -32.20290000     -68.73480000
C      -47.69670000     -31.56440000     -67.84500000
H      -45.86180000     -31.68970000     -66.78870000
H      -46.80900000     -35.04680000     -69.16060000
H      -49.43260000     -31.68360000     -69.30360000
H      -47.81330000     -30.64240000     -67.52240000
C      -49.19910000     -34.24890000     -70.07700000
H      -49.93600000     -33.52110000     -70.46500000
H      -49.94490000     -34.89220000     -69.59810000
C      -44.79950000     -33.96080000     -67.51640000
H      -44.10730000     -33.17510000     -67.17630000
H      -44.99210000     -34.64390000     -66.68300000
S      -48.48510000     -35.26550000     -71.47130000
S      -43.90800000     -35.02040000     -68.74470000
C      -47.72210000     -33.93730000     -72.56810000
H      -47.84110000     -34.17890000     -73.64790000
H      -48.15650000     -32.90630000     -72.44450000
C      -43.50230000     -33.79090000     -70.01060000
H      -42.85170000     -33.03870000     -69.63980000
H      -44.37180000     -33.22160000     -70.36270000
C      -42.94450000     -34.57830000     -71.17480000
H      -41.95410000     -34.98870000     -70.98160000
H      -43.60200000     -35.45240000     -71.38550000
C      -46.21900000     -33.99700000     -72.29210000
H      -45.86740000     -34.98030000     -72.40950000
H      -46.05620000     -33.70520000     -71.25470000
C      -45.33980000     -33.03180000     -73.08990000
C      -45.79320000     -32.00470000     -73.85710000
C      -43.88020000     -33.13360000     -73.16820000
H      -46.82060000     -31.77630000     -74.02330000
C      -43.43750000     -32.34760000     -74.20690000
C      -42.79700000     -33.84010000     -72.46800000
C      -41.57200000     -33.41010000     -72.93110000
S      -44.59400000     -31.49650000     -75.05760000
S      -41.68230000     -32.28440000     -74.28570000
H      -40.58860000     -33.67790000     -72.46940000
