40
Properties=species:S:1:pos:R:3 #=T CELL(abcABC):=T 1.889726e+02=T 90.00000=T Traj:=T positionsangstrom=T Step:=T 0=T Bead:=T pbc="F F F"
C      -43.91580000     -37.27970000     -72.24280000
C      -44.84050000     -36.51790000     -72.98570000
C      -46.14880000     -36.36270000     -72.51910000
C      -46.50010000     -36.80050000     -71.23240000
C      -45.61090000     -37.49160000     -70.46500000
C      -44.33890000     -37.76980000     -70.98090000
H      -42.89880000     -37.51340000     -72.59750000
H      -46.92750000     -35.91890000     -73.07650000
H      -45.85420000     -37.69160000     -69.44250000
H      -43.55460000     -38.29710000     -70.47090000
C      -47.89860000     -36.56330000     -70.73340000
H      -48.34980000     -37.45620000     -70.24710000
H      -48.54790000     -36.25070000     -71.61330000
C      -44.33980000     -35.90900000     -74.25010000
H      -43.84210000     -36.58530000     -74.95760000
H      -45.15070000     -35.35160000     -74.83430000
S      -47.96150000     -35.38040000     -69.40000000
S      -42.98880000     -34.68050000     -73.91060000
C      -47.88130000     -33.70140000     -70.17990000
H      -48.41200000     -33.77990000     -71.15600000
H      -48.20630000     -32.91180000     -69.48420000
C      -43.58410000     -33.70110000     -72.48390000
H      -42.68950000     -33.49030000     -71.83050000
H      -44.24650000     -34.32960000     -71.90400000
C      -44.15590000     -32.37070000     -73.00370000
H      -43.40680000     -32.10870000     -73.70530000
H      -45.01410000     -32.53560000     -73.66550000
C      -46.43500000     -33.35030000     -70.65780000
H      -46.35620000     -33.49960000     -71.77700000
H      -45.64670000     -33.98640000     -70.45640000
C      -46.05950000     -31.89950000     -70.27820000
C      -46.62290000     -31.23450000     -69.15980000
C      -45.06290000     -31.06620000     -70.96070000
H      -47.48820000     -31.56130000     -68.60810000
C      -44.98740000     -29.77850000     -70.39250000
C      -44.22660000     -31.15630000     -72.16420000
C      -43.65950000     -29.87410000     -72.45620000
S      -45.97910000     -29.60720000     -68.96830000
S      -43.89130000     -28.68970000     -71.20040000
H      -43.09800000     -29.55900000     -73.30470000
