40
Properties=species:S:1:pos:R:3 #=T CELL(abcABC):=T 1.889726e+02=T 90.00000=T Traj:=T positionsangstrom=T Step:=T 0=T Bead:=T pbc="F F F"
C      -46.41170000     -35.60810000     -74.00040000
C      -45.03840000     -35.43380000     -74.04840000
C      -44.28120000     -35.98400000     -72.98730000
C      -44.92940000     -36.67080000     -71.95920000
C      -46.28180000     -36.86640000     -71.92370000
C      -47.04290000     -36.33340000     -72.89100000
H      -47.03730000     -35.18240000     -74.77970000
H      -43.25810000     -35.83450000     -73.05350000
H      -46.76100000     -37.31290000     -71.05750000
H      -48.13300000     -36.45500000     -72.98210000
C      -44.05060000     -37.23050000     -70.84470000
H      -42.99520000     -37.04860000     -71.09340000
H      -44.02900000     -38.36180000     -70.88100000
C      -44.27870000     -34.77790000     -75.14780000
H      -43.53240000     -35.45890000     -75.57470000
H      -44.98950000     -34.53980000     -75.97720000
S      -44.36650000     -36.66320000     -69.06090000
S      -43.40540000     -33.25400000     -74.56120000
C      -45.36650000     -35.11570000     -69.08530000
H      -46.30010000     -35.31150000     -69.59900000
H      -45.52830000     -34.92990000     -67.97410000
C      -44.69920000     -32.39020000     -73.50140000
H      -45.30510000     -33.19480000     -73.00750000
H      -45.23520000     -31.81230000     -74.24120000
C      -43.97000000     -31.61130000     -72.39420000
H      -43.31280000     -32.15760000     -71.68500000
H      -43.28610000     -30.77280000     -72.74770000
C      -44.83720000     -33.87110000     -69.84920000
H      -44.95480000     -34.10050000     -70.92370000
H      -43.77230000     -33.74790000     -69.74440000
C      -45.64850000     -32.62510000     -69.55430000
C      -46.56980000     -32.63980000     -68.46920000
C      -45.58210000     -31.35150000     -70.25760000
H      -47.01430000     -33.41700000     -67.83540000
C      -46.34180000     -30.38480000     -69.64220000
C      -44.90890000     -30.87680000     -71.52700000
C      -45.20120000     -29.53020000     -71.63990000
S      -47.33410000     -31.08860000     -68.34360000
S      -46.32260000     -28.80830000     -70.47100000
H      -44.78430000     -28.87130000     -72.44070000
