40
Properties=species:S:1:pos:R:3 #=T CELL(abcABC):=T 1.889726e+02=T 90.00000=T Traj:=T positionsangstrom=T Step:=T 0=T Bead:=T pbc="F F F"
C      -46.69820000     -32.79080000     -67.32480000
C      -46.11130000     -33.93500000     -67.93760000
C      -46.92430000     -34.63590000     -68.87710000
C      -48.21490000     -34.19380000     -69.21430000
C      -48.76320000     -33.03940000     -68.69790000
C      -47.94950000     -32.35800000     -67.68180000
H      -46.08860000     -32.15080000     -66.67980000
H      -46.51410000     -35.59750000     -69.26730000
H      -49.79740000     -32.72520000     -68.87860000
H      -48.32060000     -31.48310000     -67.32540000
C      -49.07490000     -35.15190000     -70.05460000
H      -50.08130000     -34.69130000     -70.06750000
H      -49.14780000     -36.12000000     -69.55100000
C      -44.83010000     -34.57220000     -67.57230000
H      -44.30980000     -33.79050000     -67.02940000
H      -45.03950000     -35.37700000     -66.89370000
S      -48.41530000     -35.53710000     -71.69940000
S      -43.85690000     -35.18700000     -68.99040000
C      -47.52180000     -34.13320000     -72.54580000
H      -47.37930000     -34.51450000     -73.53850000
H      -48.14620000     -33.22160000     -72.62050000
C      -43.44370000     -33.81040000     -70.09710000
H      -42.64730000     -33.04400000     -69.67100000
H      -44.39070000     -33.28910000     -70.35690000
C      -42.92160000     -34.34010000     -71.40910000
H      -41.99460000     -34.95560000     -71.17700000
H      -43.61380000     -35.07740000     -71.92830000
C      -46.11050000     -33.59110000     -72.06690000
H      -45.48870000     -34.48820000     -71.86030000
H      -46.28990000     -33.09880000     -71.07480000
C      -45.37390000     -32.52380000     -72.93520000
C      -45.90360000     -31.63210000     -73.79000000
C      -43.87240000     -32.52540000     -73.00270000
H      -47.01350000     -31.58620000     -73.96680000
C      -43.41740000     -31.66320000     -74.01100000
C      -42.74030000     -33.26540000     -72.47830000
C      -41.51560000     -32.98850000     -73.01860000
S      -44.73100000     -30.81990000     -74.85860000
S      -41.67580000     -31.63390000     -74.23770000
H      -40.57260000     -33.41690000     -72.56580000
