40
Properties=species:S:1:pos:R:3 #=T CELL(abcABC):=T 1.889726e+02=T 90.00000=T Traj:=T positionsangstrom=T Step:=T 0=T Bead:=T pbc="F F F"
C      -46.56860000     -32.32160000     -67.49870000
C      -46.20460000     -33.55590000     -67.99030000
C      -47.11350000     -34.29140000     -68.78280000
C      -48.35100000     -33.74730000     -69.14830000
C      -48.65770000     -32.49180000     -68.69070000
C      -47.85010000     -31.73920000     -67.83330000
H      -45.95280000     -31.91040000     -66.80040000
H      -46.80220000     -35.24120000     -69.22690000
H      -49.70450000     -32.08770000     -68.96200000
H      -48.09960000     -30.81910000     -67.49650000
C      -49.30610000     -34.49340000     -70.01700000
H      -50.00460000     -33.75960000     -70.42950000
H      -49.76240000     -35.30650000     -69.41470000
C      -44.88110000     -34.26020000     -67.52270000
H      -44.23120000     -33.47800000     -67.06440000
H      -45.09780000     -34.92510000     -66.70940000
S      -48.40750000     -35.32910000     -71.47190000
S      -44.16110000     -35.12230000     -68.91450000
C      -47.41900000     -34.02680000     -72.38990000
H      -47.31330000     -34.45610000     -73.37230000
H      -48.09580000     -33.18550000     -72.51920000
C      -43.34520000     -33.77100000     -69.97380000
H      -42.46920000     -33.36920000     -69.36020000
H      -43.98860000     -32.83540000     -70.11020000
C      -42.86410000     -34.45580000     -71.27750000
H      -41.89150000     -34.91960000     -70.98770000
H      -43.44710000     -35.30920000     -71.56490000
C      -46.02240000     -33.55830000     -71.87330000
H      -45.42700000     -34.33910000     -71.36970000
H      -46.18240000     -32.65010000     -71.18300000
C      -45.20690000     -32.96030000     -73.02970000
C      -45.79450000     -32.20810000     -73.98050000
C      -43.79730000     -32.89540000     -73.10150000
H      -46.85810000     -32.05500000     -74.20260000
C      -43.38610000     -32.06090000     -74.16630000
C      -42.65990000     -33.51250000     -72.40920000
C      -41.48780000     -33.12580000     -73.00020000
S      -44.67080000     -31.30190000     -74.99240000
S      -41.64760000     -32.18850000     -74.44590000
H      -40.50220000     -33.62760000     -72.80210000
