40
Properties=species:S:1:pos:R:3 #=T CELL(abcABC):=T 1.889726e+02=T 90.00000=T Traj:=T positionsangstrom=T Step:=T 0=T Bead:=T pbc="F F F"
C      -45.67420000     -35.85380000     -70.48700000
C      -45.79570000     -35.74670000     -71.88200000
C      -44.73150000     -35.30680000     -72.64310000
C      -43.52110000     -34.93740000     -72.04270000
C      -43.37060000     -35.20540000     -70.67760000
C      -44.38350000     -35.70560000     -69.88960000
H      -46.53100000     -36.26910000     -69.87350000
H      -44.83800000     -35.24610000     -73.73110000
H      -42.37910000     -34.94840000     -70.24010000
H      -44.29580000     -35.81630000     -68.82100000
C      -42.39850000     -34.33240000     -72.86470000
H      -42.42530000     -34.66120000     -73.95480000
H      -41.47830000     -34.55790000     -72.32980000
C      -47.18950000     -36.03110000     -72.48390000
H      -47.07720000     -37.08350000     -72.89740000
H      -47.94390000     -36.11470000     -71.67400000
S      -42.49590000     -32.49690000     -72.96970000
S      -47.77160000     -34.81460000     -73.78830000
C      -44.19170000     -31.96140000     -73.54980000
H      -44.17840000     -31.56040000     -74.59430000
H      -44.96380000     -32.82690000     -73.54490000
C      -48.59950000     -33.51180000     -72.71900000
H      -49.00640000     -33.99490000     -71.85260000
H      -49.38800000     -33.10830000     -73.33940000
C      -47.74780000     -32.31590000     -72.12320000
H      -47.10980000     -31.80180000     -72.82780000
H      -48.51390000     -31.60540000     -71.79540000
C      -44.64030000     -30.88830000     -72.63290000
H      -45.63050000     -30.43760000     -72.92570000
H      -44.02090000     -30.04480000     -72.64540000
C      -44.66140000     -31.32130000     -71.21440000
C      -43.60490000     -31.03700000     -70.35160000
C      -45.69660000     -31.98590000     -70.50650000
H      -42.68980000     -30.52530000     -70.60470000
C      -45.39960000     -32.26680000     -69.15590000
C      -46.95370000     -32.60660000     -70.90750000
C      -47.63800000     -33.21420000     -69.83660000
S      -43.86430000     -31.66970000     -68.68090000
S      -46.67310000     -33.17940000     -68.34690000
H      -48.56290000     -33.70840000     -69.76690000
