40
Properties=species:S:1:pos:R:3 #=T CELL(abcABC):=T 1.889726e+02=T 90.00000=T Traj:=T positionsangstrom=T Step:=T 0=T Bead:=T pbc="F F F"
C      -45.20410000     -35.70130000     -69.93580000
C      -45.74380000     -35.69740000     -71.22230000
C      -44.93830000     -35.35980000     -72.30470000
C      -43.60500000     -34.91040000     -72.11130000
C      -43.21170000     -34.68450000     -70.77080000
C      -43.96030000     -35.19520000     -69.72690000
H      -45.80370000     -36.15960000     -69.06780000
H      -45.31640000     -35.52150000     -73.31200000
H      -42.21980000     -34.29150000     -70.55370000
H      -43.59090000     -35.15750000     -68.74100000
C      -42.77790000     -34.57640000     -73.32100000
H      -43.18080000     -34.85740000     -74.33950000
H      -41.76260000     -34.99970000     -73.28270000
C      -47.16690000     -36.13240000     -71.42470000
H      -47.27480000     -37.24230000     -71.35860000
H      -47.73740000     -35.72260000     -70.51410000
S      -42.42140000     -32.72970000     -73.46240000
S      -48.07380000     -35.68730000     -72.87100000
C      -43.99710000     -31.93120000     -73.92410000
H      -43.86930000     -31.45700000     -74.78580000
H      -44.74380000     -32.71540000     -74.08810000
C      -48.37150000     -33.83300000     -72.79960000
H      -49.06040000     -33.72800000     -71.98810000
H      -48.95370000     -33.67250000     -73.76330000
C      -47.38080000     -32.66860000     -72.58030000
H      -46.47080000     -32.64600000     -73.27910000
H      -47.97540000     -31.73640000     -72.81420000
C      -44.58190000     -30.92240000     -72.89940000
H      -45.61630000     -30.62610000     -73.13400000
H      -44.13240000     -29.95690000     -73.02600000
C      -44.59220000     -31.31060000     -71.40240000
C      -43.59470000     -30.97100000     -70.54700000
C      -45.68410000     -31.94100000     -70.72430000
H      -42.72490000     -30.37620000     -70.93930000
C      -45.54280000     -31.91680000     -69.27400000
C      -46.92540000     -32.53040000     -71.11450000
C      -47.69740000     -32.95210000     -70.05030000
S      -43.90960000     -31.45530000     -68.87420000
S      -46.91800000     -32.66020000     -68.46170000
H      -48.68760000     -33.45940000     -70.17060000
