40
Properties=species:S:1:pos:R:3 #=T CELL(abcABC):=T 1.889726e+02=T 90.00000=T Traj:=T positionsangstrom=T Step:=T 0=T Bead:=T pbc="F F F"
C      -46.20350000     -33.80900000     -67.65080000
C      -45.80080000     -35.04810000     -68.30290000
C      -46.64290000     -35.57680000     -69.29070000
C      -47.76640000     -34.86230000     -69.81200000
C      -48.08270000     -33.66870000     -69.15810000
C      -47.26970000     -33.11110000     -68.13100000
H      -45.74320000     -33.45510000     -66.77190000
H      -46.48450000     -36.61090000     -69.69860000
H      -49.05970000     -33.22400000     -69.47450000
H      -47.39260000     -32.10450000     -67.76000000
C      -48.54830000     -35.45310000     -70.96950000
H      -49.24090000     -34.71060000     -71.42300000
H      -49.30070000     -36.15180000     -70.50480000
C      -44.49710000     -35.66740000     -67.92540000
H      -44.05290000     -35.25100000     -67.04640000
H      -44.60100000     -36.74470000     -67.72310000
S      -47.64430000     -36.23200000     -72.41030000
S      -43.22600000     -35.46000000     -69.27000000
C      -47.08210000     -34.64180000     -73.26750000
H      -47.01540000     -34.90060000     -74.34620000
H      -47.82110000     -33.85680000     -73.06430000
C      -43.62250000     -33.76390000     -69.96180000
H      -43.44020000     -32.96790000     -69.20660000
H      -44.70240000     -33.81520000     -70.23450000
C      -42.81900000     -33.57320000     -71.21130000
H      -41.75530000     -33.57370000     -70.93600000
H      -42.88900000     -34.43750000     -71.89650000
C      -45.84110000     -34.11620000     -72.57200000
H      -44.97050000     -34.75850000     -72.69280000
H      -46.09300000     -34.06570000     -71.53640000
C      -45.48640000     -32.72060000     -73.06690000
C      -46.41390000     -31.90750000     -73.75830000
C      -44.22120000     -32.03620000     -72.85570000
H      -47.42820000     -32.20080000     -73.94490000
C      -44.16780000     -30.78500000     -73.41660000
C      -43.07470000     -32.22100000     -71.93520000
C      -42.22140000     -31.13970000     -71.86810000
S      -45.70920000     -30.36060000     -74.15290000
S      -42.82150000     -29.85560000     -72.87370000
H      -41.24020000     -31.02690000     -71.47030000
