40
Properties=species:S:1:pos:R:3 #=T CELL(abcABC):=T 1.889726e+02=T 90.00000=T Traj:=T positionsangstrom=T Step:=T 0=T Bead:=T pbc="F F F"
C      -46.47240000     -33.72440000     -67.81830000
C      -45.90200000     -34.81970000     -68.55430000
C      -46.54800000     -35.43470000     -69.60710000
C      -47.81520000     -35.01800000     -69.95800000
C      -48.40660000     -33.94280000     -69.24130000
C      -47.67760000     -33.26640000     -68.24240000
H      -45.88740000     -33.22560000     -67.03110000
H      -46.14330000     -36.41230000     -69.99850000
H      -49.46590000     -33.65870000     -69.26180000
H      -48.22770000     -32.42560000     -67.77170000
C      -48.63550000     -35.83260000     -70.99960000
H      -49.65150000     -35.54270000     -71.14500000
H      -48.78280000     -36.78570000     -70.58250000
C      -44.66200000     -35.43910000     -68.03090000
H      -44.27500000     -34.79750000     -67.14710000
H      -44.79190000     -36.40590000     -67.57820000
S      -47.63280000     -36.06680000     -72.50590000
S      -43.47550000     -35.60210000     -69.41080000
C      -47.31400000     -34.33810000     -72.96620000
H      -47.73160000     -34.04330000     -73.91440000
H      -47.80960000     -33.71270000     -72.18480000
C      -43.35280000     -33.87190000     -69.89480000
H      -42.57090000     -33.35450000     -69.30820000
H      -44.32390000     -33.29820000     -69.69160000
C      -42.74950000     -33.83960000     -71.32730000
H      -41.71540000     -34.14990000     -71.23100000
H      -43.19040000     -34.55230000     -72.01730000
C      -45.77950000     -34.10150000     -72.91930000
H      -45.26860000     -34.95300000     -73.46120000
H      -45.53090000     -34.12960000     -71.82690000
C      -45.31660000     -32.70090000     -73.24470000
C      -46.05170000     -31.80770000     -73.97790000
C      -44.09300000     -32.09120000     -72.77590000
H      -47.04270000     -31.78320000     -74.35940000
C      -44.01850000     -30.71180000     -73.13070000
C      -43.02400000     -32.41760000     -71.85330000
C      -42.31070000     -31.29320000     -71.53250000
S      -45.31020000     -30.19510000     -74.18140000
S      -42.82720000     -29.81690000     -72.27170000
H      -41.37750000     -31.30230000     -70.97120000
