40
Properties=species:S:1:pos:R:3 #=T CELL(abcABC):=T 1.889726e+02=T 90.00000=T Traj:=T positionsangstrom=T Step:=T 0=T Bead:=T pbc="F F F"
C      -46.35750000     -33.63650000     -67.88700000
C      -45.90780000     -34.91760000     -68.37490000
C      -46.71970000     -35.60060000     -69.29270000
C      -47.88800000     -35.06310000     -69.81850000
C      -48.40850000     -33.88940000     -69.18240000
C      -47.70060000     -33.25950000     -68.16150000
H      -45.78670000     -33.02410000     -67.16070000
H      -46.40370000     -36.55850000     -69.68030000
H      -49.24510000     -33.38220000     -69.53190000
H      -48.25110000     -32.43220000     -67.71850000
C      -48.64400000     -35.69920000     -70.99540000
H      -49.45170000     -34.96210000     -71.30420000
H      -49.17030000     -36.71500000     -70.75670000
C      -44.58190000     -35.46630000     -67.97550000
H      -44.20850000     -34.86250000     -67.10510000
H      -44.68230000     -36.46750000     -67.67310000
S      -47.59360000     -36.11020000     -72.46630000
S      -43.24930000     -35.71340000     -69.29100000
C      -47.15030000     -34.37570000     -73.06650000
H      -47.27790000     -34.47980000     -74.16200000
H      -47.86310000     -33.62730000     -72.67400000
C      -43.35740000     -33.98230000     -69.91600000
H      -42.91080000     -33.34330000     -69.15030000
H      -44.41540000     -33.78430000     -70.03120000
C      -42.74260000     -33.68530000     -71.35000000
H      -41.65970000     -33.80420000     -71.30830000
H      -43.18700000     -34.35600000     -72.09420000
C      -45.66360000     -34.06740000     -72.80520000
H      -44.99650000     -34.78160000     -73.23290000
H      -45.50820000     -34.06190000     -71.74380000
C      -45.32110000     -32.68200000     -73.20130000
C      -46.12110000     -31.92710000     -74.04870000
C      -44.21140000     -31.92680000     -72.72110000
H      -47.09650000     -32.18670000     -74.49230000
C      -44.16950000     -30.62270000     -73.15300000
C      -43.10660000     -32.30390000     -71.83980000
C      -42.21690000     -31.26230000     -71.67950000
S      -45.56240000     -30.22450000     -74.20820000
S      -42.79560000     -29.75280000     -72.59110000
H      -41.44430000     -31.26100000     -70.92840000
