40
Properties=species:S:1:pos:R:3 #=T CELL(abcABC):=T 1.889726e+02=T 90.00000=T Traj:=T positionsangstrom=T Step:=T 0=T Bead:=T pbc="F F F"
C      -46.19650000     -33.45900000     -67.85250000
C      -45.79410000     -34.76690000     -68.21530000
C      -46.60770000     -35.54850000     -69.05190000
C      -47.83130000     -34.99920000     -69.56700000
C      -48.21850000     -33.69900000     -69.14140000
C      -47.43140000     -32.95930000     -68.29810000
H      -45.57150000     -32.96070000     -67.13030000
H      -46.41990000     -36.61080000     -69.30250000
H      -49.11230000     -33.26320000     -69.49540000
H      -47.71130000     -31.88160000     -68.24900000
C      -48.57930000     -35.70330000     -70.59420000
H      -49.38760000     -35.06300000     -70.97290000
H      -49.05680000     -36.63570000     -70.38750000
C      -44.41260000     -35.30680000     -67.79230000
H      -43.86200000     -34.73600000     -67.02410000
H      -44.39630000     -36.37590000     -67.37090000
S      -47.54440000     -36.29880000     -72.10690000
S      -43.23500000     -35.51810000     -69.28490000
C      -47.02050000     -34.74490000     -73.01320000
H      -46.45880000     -35.09360000     -73.88970000
H      -47.89760000     -34.15830000     -73.28040000
C      -43.38010000     -33.83910000     -70.07750000
H      -42.75040000     -33.18300000     -69.50370000
H      -44.45250000     -33.58700000     -69.99740000
C      -42.81490000     -33.73820000     -71.51840000
H      -41.71130000     -33.90490000     -71.55490000
H      -43.29530000     -34.58410000     -72.08860000
C      -46.07010000     -33.74710000     -72.24570000
H      -45.21320000     -34.26560000     -71.94380000
H      -46.57790000     -33.48300000     -71.38870000
C      -45.65750000     -32.59550000     -73.00090000
C      -46.48410000     -31.69200000     -73.66360000
C      -44.34610000     -32.08660000     -72.90090000
H      -47.43370000     -31.80510000     -74.23230000
C      -44.24200000     -30.79920000     -73.46250000
C      -43.15240000     -32.46260000     -72.20160000
C      -42.19630000     -31.54440000     -72.26090000
S      -45.68470000     -30.20700000     -74.23420000
S      -42.70730000     -30.05880000     -73.19190000
H      -41.20130000     -31.59560000     -71.91000000
