40
Properties=species:S:1:pos:R:3 #=T CELL(abcABC):=T 1.889726e+02=T 90.00000=T Traj:=T positionsangstrom=T Step:=T 0=T Bead:=T pbc="F F F"
C      -46.32310000     -33.85310000     -67.67320000
C      -45.90650000     -35.07470000     -68.25150000
C      -46.57920000     -35.62590000     -69.36360000
C      -47.77270000     -35.06060000     -69.79710000
C      -48.13320000     -33.83730000     -69.26330000
C      -47.41590000     -33.22050000     -68.28300000
H      -45.76770000     -33.28050000     -66.94270000
H      -46.20960000     -36.38880000     -69.97450000
H      -49.01630000     -33.39570000     -69.63840000
H      -47.77940000     -32.25180000     -67.92420000
C      -48.72770000     -35.64920000     -70.80280000
H      -49.40080000     -34.91680000     -71.13960000
H      -49.21750000     -36.53990000     -70.41990000
C      -44.57110000     -35.72380000     -67.96000000
H      -44.15710000     -35.41480000     -67.00920000
H      -44.70790000     -36.83760000     -67.95450000
S      -47.68280000     -36.22320000     -72.24600000
S      -43.36400000     -35.32830000     -69.38870000
C      -47.15280000     -34.70600000     -73.16670000
H      -47.12570000     -35.11860000     -74.19320000
H      -47.83490000     -33.87900000     -73.24010000
C      -43.47170000     -33.60810000     -69.95100000
H      -43.00670000     -32.91300000     -69.25350000
H      -44.46940000     -33.18020000     -70.05700000
C      -42.73830000     -33.60730000     -71.32480000
H      -41.68280000     -33.78230000     -71.19870000
H      -43.10620000     -34.46870000     -71.86490000
C      -45.77870000     -34.10360000     -72.77350000
H      -44.88100000     -34.75890000     -73.06860000
H      -45.67960000     -34.25000000     -71.66380000
C      -45.43340000     -32.70870000     -73.13280000
C      -46.20030000     -31.86780000     -73.98290000
C      -44.27030000     -31.94360000     -72.65940000
H      -47.04190000     -32.23130000     -74.59410000
C      -44.21290000     -30.64910000     -73.12160000
C      -43.01130000     -32.28500000     -71.96150000
C      -42.15050000     -31.19340000     -71.98840000
S      -45.53230000     -30.28410000     -74.20410000
S      -42.81660000     -29.81510000     -72.69550000
H      -41.26340000     -31.09350000     -71.46570000
