40
Properties=species:S:1:pos:R:3 #=T CELL(abcABC):=T 1.889726e+02=T 90.00000=T Traj:=T positionsangstrom=T Step:=T 0=T Bead:=T pbc="F F F"
C      -46.26370000     -35.60110000     -74.19660000
C      -44.90340000     -35.34930000     -74.06950000
C      -44.21300000     -35.87510000     -72.96180000
C      -44.80880000     -36.62180000     -72.01790000
C      -46.19840000     -36.75410000     -72.04620000
C      -46.85100000     -36.26280000     -73.15850000
H      -46.77030000     -35.07470000     -74.99510000
H      -43.11460000     -35.67000000     -72.99410000
H      -46.68390000     -37.37150000     -71.24470000
H      -47.92730000     -36.38730000     -73.27830000
C      -43.99980000     -37.38200000     -70.91090000
H      -42.96240000     -37.37110000     -71.16790000
H      -44.43190000     -38.34490000     -70.78770000
C      -44.19370000     -34.54390000     -75.16990000
H      -43.34790000     -35.12530000     -75.62110000
H      -44.77280000     -34.22960000     -76.08760000
S      -44.01840000     -36.56590000     -69.24530000
S      -43.40120000     -32.97480000     -74.49490000
C      -45.32570000     -35.22740000     -69.06980000
H      -46.30070000     -35.65230000     -69.37780000
H      -45.39960000     -34.98170000     -68.03050000
C      -44.67350000     -32.37070000     -73.34100000
H      -45.31090000     -33.15120000     -73.09270000
H      -45.30720000     -31.60210000     -73.80540000
C      -43.94890000     -31.83290000     -72.07650000
H      -43.58630000     -32.52430000     -71.28960000
H      -43.18520000     -31.10840000     -72.40250000
C      -45.02550000     -33.94950000     -69.93800000
H      -45.20270000     -34.19290000     -71.02420000
H      -43.94240000     -33.85320000     -69.83880000
C      -45.88980000     -32.73300000     -69.55700000
C      -46.95560000     -32.76270000     -68.65580000
C      -45.75960000     -31.48660000     -70.26340000
H      -47.01370000     -33.54130000     -67.99120000
C      -46.55840000     -30.48120000     -69.70330000
C      -44.90090000     -30.95310000     -71.23960000
C      -45.05800000     -29.59710000     -71.32960000
S      -47.59100000     -31.13380000     -68.37840000
S      -46.39520000     -28.94050000     -70.34090000
H      -44.64420000     -28.91270000     -72.05030000
