40
Properties=species:S:1:pos:R:3 #=T CELL(abcABC):=T 1.889726e+02=T 90.00000=T Traj:=T positionsangstrom=T Step:=T 0=T Bead:=T pbc="F F F"
C      -46.16120000     -33.49670000     -67.81600000
C      -45.76840000     -34.71290000     -68.29640000
C      -46.49210000     -35.42700000     -69.25760000
C      -47.77940000     -34.95620000     -69.64150000
C      -48.22650000     -33.75060000     -69.10370000
C      -47.34930000     -32.93720000     -68.35550000
H      -45.56400000     -32.95750000     -67.13960000
H      -46.06120000     -36.37460000     -69.65600000
H      -49.18770000     -33.42210000     -69.37250000
H      -47.79680000     -31.97890000     -67.98500000
C      -48.53770000     -35.88760000     -70.58140000
H      -49.46860000     -35.48550000     -70.86900000
H      -48.71010000     -36.96030000     -70.22550000
C      -44.42530000     -35.18050000     -67.78920000
H      -44.07290000     -34.47340000     -67.04780000
H      -44.56190000     -36.09090000     -67.27330000
S      -47.60390000     -36.25490000     -72.16420000
S      -43.29610000     -35.46890000     -69.26530000
C      -47.33530000     -34.56260000     -72.92000000
H      -47.22100000     -34.86760000     -74.02130000
H      -48.35050000     -34.09640000     -72.89190000
C      -43.45640000     -33.71360000     -69.98470000
H      -42.91600000     -33.09800000     -69.22780000
H      -44.52210000     -33.40130000     -70.08670000
C      -42.79830000     -33.69440000     -71.39680000
H      -41.72990000     -33.88790000     -71.32890000
H      -43.29530000     -34.39700000     -72.09410000
C      -46.21180000     -33.82210000     -72.18050000
H      -45.38580000     -34.55730000     -71.97560000
H      -46.54090000     -33.58670000     -71.12790000
C      -45.67070000     -32.57750000     -72.75870000
C      -46.44090000     -31.82160000     -73.59870000
C      -44.34260000     -31.91110000     -72.61970000
H      -47.57080000     -31.89870000     -73.84470000
C      -44.21990000     -30.78670000     -73.41950000
C      -43.05200000     -32.36640000     -72.10300000
C      -42.09290000     -31.53710000     -72.42240000
S      -45.65340000     -30.34250000     -74.22210000
S      -42.59900000     -30.21910000     -73.43410000
H      -41.04750000     -31.75080000     -72.33620000
