40
Properties=species:S:1:pos:R:3 #=T CELL(abcABC):=T 1.889726e+02=T 90.00000=T Traj:=T positionsangstrom=T Step:=T 0=T Bead:=T pbc="F F F"
C      -46.54700000     -33.79150000     -68.08120000
C      -46.11090000     -35.05330000     -68.48060000
C      -46.69180000     -35.72840000     -69.53200000
C      -47.97260000     -35.26570000     -69.96160000
C      -48.49050000     -34.05440000     -69.53690000
C      -47.75070000     -33.27840000     -68.59520000
H      -46.10990000     -33.24570000     -67.27640000
H      -46.30150000     -36.65380000     -69.88540000
H      -49.44090000     -33.65270000     -69.95990000
H      -47.96150000     -32.28960000     -68.25990000
C      -48.60180000     -35.97060000     -71.17980000
H      -49.56220000     -35.57260000     -71.36890000
H      -48.63740000     -37.05810000     -71.05460000
C      -44.77790000     -35.63520000     -67.90420000
H      -44.39640000     -35.22580000     -67.01390000
H      -45.07420000     -36.73190000     -67.66420000
S      -47.68220000     -35.82520000     -72.72910000
S      -43.51940000     -35.71110000     -69.29120000
C      -47.18770000     -34.09410000     -72.96130000
H      -47.85480000     -33.61840000     -73.71550000
H      -47.27190000     -33.54990000     -72.00460000
C      -43.65260000     -33.94420000     -69.86700000
H      -43.23960000     -33.23960000     -69.05150000
H      -44.71810000     -33.71450000     -70.09740000
C      -42.76640000     -33.77590000     -71.14780000
H      -41.74530000     -33.98350000     -70.80650000
H      -43.11900000     -34.53410000     -71.90290000
C      -45.65540000     -34.06970000     -73.14870000
H      -45.37710000     -34.65050000     -74.07230000
H      -45.31980000     -34.50920000     -72.23590000
C      -45.10170000     -32.63260000     -73.31650000
C      -45.93880000     -31.71450000     -73.89600000
C      -43.98400000     -32.00360000     -72.74040000
H      -46.74770000     -32.02590000     -74.56170000
C      -43.92730000     -30.63630000     -73.05540000
C      -42.91110000     -32.36770000     -71.84100000
C      -42.06360000     -31.38460000     -71.45440000
S      -45.35780000     -30.05160000     -73.89730000
S      -42.67250000     -29.77750000     -72.15230000
H      -41.32200000     -31.38400000     -70.63820000
