40
Properties=species:S:1:pos:R:3 #=T CELL(abcABC):=T 1.889726e+02=T 90.00000=T Traj:=T positionsangstrom=T Step:=T 0=T Bead:=T pbc="F F F"
C      -46.90230000     -33.79630000     -68.10980000
C      -46.45970000     -35.03900000     -68.56230000
C      -47.13550000     -35.63660000     -69.62560000
C      -48.27060000     -34.99800000     -70.25340000
C      -48.53790000     -33.71700000     -69.88480000
C      -47.90930000     -33.11300000     -68.76250000
H      -46.37990000     -33.24380000     -67.35470000
H      -46.82400000     -36.63700000     -69.95590000
H      -49.36970000     -33.06890000     -70.37500000
H      -48.12110000     -32.07260000     -68.47510000
C      -48.82850000     -35.63280000     -71.54660000
H      -49.68190000     -35.02970000     -71.80270000
H      -49.15910000     -36.56410000     -71.25780000
C      -45.26120000     -35.63130000     -67.85960000
H      -45.02060000     -35.00670000     -66.93120000
H      -45.29400000     -36.72800000     -67.62030000
S      -47.69710000     -35.88560000     -72.88020000
S      -43.67840000     -35.64830000     -68.88210000
C      -47.11830000     -34.13080000     -73.36950000
H      -46.80440000     -34.32950000     -74.38060000
H      -47.98720000     -33.46030000     -73.35080000
C      -43.71060000     -34.00390000     -69.71200000
H      -43.13700000     -33.34540000     -69.12660000
H      -44.66480000     -33.57670000     -69.80960000
C      -43.02830000     -34.01990000     -71.10960000
H      -42.04340000     -34.36570000     -71.11020000
H      -43.59120000     -34.80300000     -71.66600000
C      -45.94140000     -33.67940000     -72.50440000
H      -45.18280000     -34.44080000     -72.46530000
H      -46.19290000     -33.43640000     -71.46280000
C      -45.31370000     -32.34790000     -72.94810000
C      -45.87810000     -31.31370000     -73.69930000
C      -43.97780000     -32.03040000     -72.57040000
H      -46.83510000     -31.33700000     -74.21000000
C      -43.57630000     -30.74910000     -72.89120000
C      -42.95860000     -32.66950000     -71.77950000
C      -41.83850000     -31.90580000     -71.61580000
S      -44.76650000     -29.97360000     -73.96920000
S      -42.05050000     -30.29280000     -72.27400000
H      -41.00910000     -32.10720000     -71.01450000
