40
Properties=species:S:1:pos:R:3 #=T CELL(abcABC):=T 1.889726e+02=T 90.00000=T Traj:=T positionsangstrom=T Step:=T 0=T Bead:=T pbc="F F F"
C      -45.54650000     -36.66960000     -72.12710000
C      -45.67990000     -35.78770000     -73.25430000
C      -44.68930000     -34.82840000     -73.49190000
C      -43.46620000     -34.79370000     -72.79710000
C      -43.39090000     -35.61520000     -71.62280000
C      -44.35100000     -36.59630000     -71.38470000
H      -46.32830000     -37.41990000     -71.93400000
H      -44.77620000     -34.28350000     -74.35910000
H      -42.48960000     -35.52100000     -71.00450000
H      -44.26040000     -37.19150000     -70.45020000
C      -42.39560000     -33.81210000     -73.17060000
H      -42.46400000     -33.42280000     -74.19630000
H      -41.45640000     -34.25670000     -72.89840000
C      -46.91940000     -35.90490000     -74.05230000
H      -46.66110000     -36.25590000     -75.04980000
H      -47.46340000     -36.73330000     -73.60700000
S      -42.56270000     -32.28750000     -72.12500000
S      -48.05640000     -34.45440000     -74.18720000
C      -43.99480000     -31.44760000     -72.97050000
H      -43.56210000     -30.90860000     -73.83540000
H      -44.66160000     -32.22990000     -73.42170000
C      -48.06360000     -34.12060000     -72.40640000
H      -47.74280000     -34.92560000     -71.80640000
H      -49.07120000     -33.92060000     -72.00720000
C      -47.14930000     -32.89320000     -72.01030000
H      -46.22960000     -32.97630000     -72.49930000
H      -47.79870000     -32.03490000     -72.29950000
C      -44.69600000     -30.54270000     -71.90440000
H      -45.79020000     -30.39250000     -72.24210000
H      -44.35760000     -29.47410000     -71.88300000
C      -44.79820000     -31.11470000     -70.49940000
C      -44.08200000     -30.49730000     -69.50620000
C      -45.75350000     -32.06480000     -69.96790000
H      -43.26710000     -29.75340000     -69.57860000
C      -45.56070000     -32.28990000     -68.57130000
C      -46.76580000     -32.91710000     -70.45940000
C      -47.27730000     -33.81060000     -69.54990000
S      -44.32520000     -31.23150000     -67.95780000
S      -46.61030000     -33.57260000     -67.93620000
H      -48.07840000     -34.54990000     -69.58050000
