40
Properties=species:S:1:pos:R:3 #=T CELL(abcABC):=T 1.889726e+02=T 90.00000=T Traj:=T positionsangstrom=T Step:=T 0=T Bead:=T pbc="F F F"
C      -45.58760000     -36.43730000     -72.86260000
C      -45.40420000     -35.38710000     -73.82000000
C      -44.25860000     -34.58310000     -73.68230000
C      -43.35810000     -34.71500000     -72.60790000
C      -43.63730000     -35.62200000     -71.55870000
C      -44.74110000     -36.47360000     -71.72230000
H      -46.48290000     -37.03160000     -72.91140000
H      -44.04340000     -33.85620000     -74.52680000
H      -42.95940000     -35.80540000     -70.76240000
H      -44.94430000     -37.14750000     -70.85900000
C      -42.24690000     -33.65350000     -72.68040000
H      -42.25830000     -33.27730000     -73.71380000
H      -41.27340000     -33.93160000     -72.36970000
C      -46.36140000     -35.21000000     -74.91690000
H      -45.95660000     -34.54180000     -75.66800000
H      -46.53310000     -36.18950000     -75.29840000
S      -42.53990000     -32.15660000     -71.64760000
S      -48.01090000     -34.60020000     -74.33920000
C      -43.94730000     -31.45540000     -72.50580000
H      -43.60330000     -31.09460000     -73.44720000
H      -44.56080000     -32.32600000     -72.74350000
C      -47.86400000     -34.44240000     -72.45360000
H      -47.44710000     -35.32760000     -72.06480000
H      -48.90750000     -34.42520000     -72.13340000
C      -47.16930000     -33.18820000     -71.99520000
H      -46.12490000     -33.11660000     -72.45610000
H      -47.88340000     -32.46310000     -72.26880000
C      -44.81760000     -30.50140000     -71.73470000
H      -45.73410000     -30.31710000     -72.29000000
H      -44.42130000     -29.51120000     -71.60170000
C      -44.95300000     -31.07090000     -70.32820000
C      -44.19400000     -30.54760000     -69.30480000
C      -45.85310000     -32.11930000     -69.90110000
H      -43.50010000     -29.75810000     -69.42780000
C      -45.71000000     -32.40630000     -68.58970000
C      -46.76130000     -33.14570000     -70.53050000
C      -47.20320000     -34.04680000     -69.63940000
S      -44.61290000     -31.33910000     -67.81620000
S      -46.64060000     -33.75300000     -67.94230000
H      -47.98700000     -34.84590000     -69.80850000
