40
Properties=species:S:1:pos:R:3 #=T CELL(abcABC):=T 1.889726e+02=T 90.00000=T Traj:=T positionsangstrom=T Step:=T 0=T Bead:=T pbc="F F F"
C      -46.61510000     -33.74980000     -67.88450000
C      -46.04310000     -34.92500000     -68.40430000
C      -46.74290000     -35.68080000     -69.34330000
C      -47.95170000     -35.19300000     -69.92590000
C      -48.47280000     -33.95000000     -69.47470000
C      -47.76520000     -33.22730000     -68.49690000
H      -46.14120000     -33.14530000     -67.10900000
H      -46.17880000     -36.49890000     -69.82260000
H      -49.36660000     -33.45340000     -69.97430000
H      -48.14110000     -32.23020000     -68.13040000
C      -48.73900000     -35.90220000     -71.00150000
H      -49.64780000     -35.32180000     -71.28810000
H      -48.90130000     -36.95830000     -70.63540000
C      -44.65450000     -35.39410000     -67.99820000
H      -44.05150000     -34.63780000     -67.53230000
H      -44.68020000     -36.24160000     -67.27030000
S      -47.83480000     -35.99910000     -72.68190000
S      -43.47860000     -35.74460000     -69.40540000
C      -47.12990000     -34.25960000     -72.91050000
H      -47.47120000     -33.94670000     -73.93830000
H      -47.66890000     -33.63720000     -72.23790000
C      -43.29360000     -33.99140000     -69.99690000
H      -42.82940000     -33.38630000     -69.25850000
H      -44.31340000     -33.59610000     -70.03560000
C      -42.60110000     -33.80160000     -71.38590000
H      -41.50850000     -33.94330000     -71.36330000
H      -42.95970000     -34.49560000     -72.14360000
C      -45.60070000     -34.14880000     -73.05310000
H      -45.27550000     -34.81130000     -73.85780000
H      -45.01410000     -34.54810000     -72.23500000
C      -45.24020000     -32.69440000     -73.32050000
C      -45.85530000     -31.80190000     -74.13500000
C      -44.17120000     -31.95570000     -72.54710000
H      -46.62980000     -31.98270000     -74.87270000
C      -44.13590000     -30.55120000     -72.81500000
C      -42.96440000     -32.34390000     -71.80500000
C      -42.14900000     -31.32890000     -71.50870000
S      -45.30050000     -30.07150000     -74.06210000
S      -42.68830000     -29.77830000     -72.14760000
H      -41.26000000     -31.51730000     -70.89430000
