40
Properties=species:S:1:pos:R:3 #=T CELL(abcABC):=T 1.889726e+02=T 90.00000=T Traj:=T positionsangstrom=T Step:=T 0=T Bead:=T pbc="F F F"
C      -45.57740000     -29.41030000     -70.85760000
C      -46.64860000     -30.30860000     -70.73180000
C      -46.61820000     -31.30390000     -69.72770000
C      -45.47960000     -31.39320000     -68.79520000
C      -44.48090000     -30.43040000     -68.96610000
C      -44.44970000     -29.56870000     -70.09250000
H      -45.47810000     -28.74920000     -71.70110000
H      -47.39240000     -32.05990000     -69.77700000
H      -43.53370000     -30.59470000     -68.47390000
H      -43.60280000     -28.90590000     -70.21030000
C      -45.31490000     -32.35940000     -67.66670000
H      -46.23520000     -32.54150000     -67.31430000
H      -44.68800000     -31.84820000     -66.90310000
C      -47.75330000     -30.39940000     -71.75020000
H      -48.70720000     -30.23210000     -71.23240000
H      -47.74580000     -29.44110000     -72.41330000
S      -44.63060000     -33.87230000     -68.25590000
S      -47.85670000     -31.93500000     -72.74610000
C      -43.08010000     -33.42670000     -69.25840000
H      -42.90970000     -32.39370000     -68.82100000
H      -42.26880000     -34.11220000     -68.93360000
C      -46.48230000     -31.83040000     -73.94480000
H      -46.24520000     -30.83110000     -74.05390000
H      -46.81090000     -32.25460000     -74.98120000
C      -45.11370000     -32.47420000     -73.46660000
H      -44.49400000     -32.15330000     -74.26100000
H      -44.78260000     -32.03890000     -72.52320000
C      -43.29400000     -33.39180000     -70.74380000
H      -42.48920000     -33.15180000     -71.39840000
H      -44.26360000     -32.74130000     -70.94010000
C      -43.74660000     -34.77170000     -71.22960000
C      -43.38730000     -35.98090000     -70.65220000
C      -44.58420000     -34.89090000     -72.38360000
H      -42.85820000     -36.31320000     -69.80730000
C      -44.92970000     -36.26640000     -72.59000000
C      -45.23350000     -33.96440000     -73.31470000
C      -46.03230000     -34.69480000     -74.18400000
S      -44.15340000     -37.36700000     -71.47560000
S      -45.97450000     -36.41850000     -73.99480000
H      -46.50290000     -34.39350000     -75.08430000
