40
Properties=species:S:1:pos:R:3 #=T CELL(abcABC):=T 1.889726e+02=T 90.00000=T Traj:=T positionsangstrom=T Step:=T 0=T Bead:=T pbc="F F F"
C      -47.03300000     -33.44560000     -68.19090000
C      -46.50370000     -34.68620000     -68.56110000
C      -47.18360000     -35.33690000     -69.65450000
C      -48.33660000     -34.80600000     -70.25920000
C      -48.87600000     -33.59110000     -69.70640000
C      -48.21150000     -32.94350000     -68.67830000
H      -46.54230000     -32.94770000     -67.37790000
H      -46.93830000     -36.32110000     -70.16560000
H      -49.78440000     -33.17200000     -70.26540000
H      -48.63140000     -31.95960000     -68.33920000
C      -48.89580000     -35.49020000     -71.51890000
H      -49.69960000     -34.70550000     -71.93160000
H      -49.37820000     -36.43320000     -71.24940000
C      -45.38360000     -35.27380000     -67.84190000
H      -45.10390000     -34.61750000     -67.05980000
H      -45.69490000     -36.27280000     -67.45070000
S      -47.73210000     -35.92150000     -72.82210000
S      -43.90190000     -35.64760000     -68.90540000
C      -47.10750000     -34.24480000     -73.20900000
H      -47.08170000     -34.06960000     -74.29740000
H      -47.91980000     -33.56770000     -72.85360000
C      -43.47350000     -33.94800000     -69.63810000
H      -42.65160000     -33.39760000     -69.00830000
H      -44.43260000     -33.36830000     -69.54940000
C      -42.79640000     -34.01670000     -71.04240000
H      -41.90580000     -34.61620000     -71.04530000
H      -43.46460000     -34.65540000     -71.69000000
C      -45.72240000     -34.02060000     -72.67300000
H      -44.97870000     -34.62840000     -73.21990000
H      -45.78390000     -34.39560000     -71.65700000
C      -45.13480000     -32.58270000     -72.78210000
C      -45.76890000     -31.63970000     -73.58290000
C      -43.78410000     -32.16050000     -72.44760000
H      -46.67170000     -31.90820000     -74.08410000
C      -43.50090000     -30.88250000     -73.05950000
C      -42.68590000     -32.69800000     -71.72920000
C      -41.64950000     -31.84340000     -71.69280000
S      -44.84220000     -30.22410000     -73.86570000
S      -41.93810000     -30.32450000     -72.61420000
H      -40.72360000     -32.00610000     -71.09500000
