40
Properties=species:S:1:pos:R:3 #=T CELL(abcABC):=T 1.889726e+02=T 90.00000=T Traj:=T positionsangstrom=T Step:=T 0=T Bead:=T pbc="F F F"
C      -42.12220000     -33.08250000     -73.13380000
C      -43.29330000     -33.03810000     -73.95210000
C      -44.18980000     -34.08700000     -74.07960000
C      -43.87430000     -35.24840000     -73.31070000
C      -42.78330000     -35.26430000     -72.44280000
C      -41.86200000     -34.24030000     -72.33380000
H      -41.41280000     -32.22480000     -73.05930000
H      -45.02550000     -34.08870000     -74.78380000
H      -42.73790000     -36.11530000     -71.76950000
H      -41.10910000     -34.24250000     -71.56660000
C      -44.88220000     -36.38090000     -73.36260000
H      -44.54310000     -37.23530000     -73.98080000
H      -45.87070000     -36.15920000     -73.75770000
C      -43.43920000     -31.78860000     -74.74750000
H      -42.56740000     -31.07130000     -74.52950000
H      -43.29060000     -31.94180000     -75.87170000
S      -45.25180000     -37.37450000     -71.78850000
S      -45.12910000     -31.02610000     -74.71280000
C      -45.39230000     -35.99140000     -70.48810000
H      -45.21460000     -36.38280000     -69.46050000
H      -44.59410000     -35.28510000     -70.68340000
C      -45.37030000     -30.83780000     -72.88400000
H      -46.20220000     -30.09860000     -72.83370000
H      -44.39960000     -30.49510000     -72.43110000
C      -45.79550000     -32.10610000     -72.19050000
H      -46.75950000     -32.60750000     -72.48280000
H      -45.02750000     -32.87450000     -72.14240000
C      -46.85980000     -35.35680000     -70.63100000
H      -47.68380000     -36.10180000     -70.45060000
H      -46.87430000     -35.03310000     -71.70080000
C      -47.09470000     -34.20780000     -69.66040000
C      -47.47860000     -34.50630000     -68.35030000
C      -46.60110000     -32.85740000     -69.75450000
H      -47.89130000     -35.48420000     -68.08120000
C      -46.62990000     -32.27580000     -68.46450000
C      -46.05670000     -31.86940000     -70.66950000
C      -45.72710000     -30.66410000     -70.06180000
S      -47.34080000     -33.21580000     -67.16580000
S      -46.06980000     -30.61090000     -68.32790000
H      -45.20150000     -29.81190000     -70.59240000
