40
Properties=species:S:1:pos:R:3 #=T CELL(abcABC):=T 1.889726e+02=T 90.00000=T Traj:=T positionsangstrom=T Step:=T 0=T Bead:=T pbc="F F F"
C      -41.81990000     -33.18450000     -73.30470000
C      -43.03530000     -33.03020000     -74.03090000
C      -43.96320000     -34.03580000     -74.12030000
C      -43.81020000     -35.16940000     -73.30450000
C      -42.70860000     -35.30270000     -72.47420000
C      -41.73570000     -34.27250000     -72.46770000
H      -41.04290000     -32.42280000     -73.30000000
H      -44.85990000     -33.83290000     -74.71790000
H      -42.85120000     -36.14110000     -71.80330000
H      -40.90710000     -34.25200000     -71.76390000
C      -44.82860000     -36.34960000     -73.42590000
H      -44.56860000     -37.00070000     -74.24550000
H      -45.74280000     -35.85520000     -73.75630000
C      -43.27910000     -31.78320000     -74.86840000
H      -42.52100000     -30.97720000     -74.69090000
H      -43.19610000     -32.11980000     -75.97630000
S      -45.20320000     -37.34240000     -71.87900000
S      -44.98690000     -31.11630000     -74.60840000
C      -45.52380000     -36.04480000     -70.56800000
H      -45.38320000     -36.55590000     -69.64260000
H      -44.54860000     -35.51410000     -70.62510000
C      -44.93740000     -30.81460000     -72.75150000
H      -45.40820000     -29.81600000     -72.57210000
H      -43.86010000     -30.70120000     -72.61750000
C      -45.69570000     -31.88830000     -71.99670000
H      -46.70940000     -32.01750000     -72.48120000
H      -45.15810000     -32.82650000     -72.15250000
C      -46.80650000     -35.25930000     -70.77530000
H      -47.67040000     -35.95500000     -70.86340000
H      -46.73840000     -34.85440000     -71.77820000
C      -46.99950000     -34.17950000     -69.69600000
C      -47.58290000     -34.61460000     -68.51740000
C      -46.69800000     -32.75480000     -69.65390000
H      -47.89940000     -35.61140000     -68.26360000
C      -46.84520000     -32.29670000     -68.34200000
C      -45.99220000     -31.73690000     -70.48450000
C      -46.06720000     -30.46850000     -69.90760000
S      -47.59210000     -33.46150000     -67.19100000
S      -46.48160000     -30.57810000     -68.21150000
H      -45.69660000     -29.53410000     -70.22030000
