40
Properties=species:S:1:pos:R:3 #=T CELL(abcABC):=T 1.889726e+02=T 90.00000=T Traj:=T positionsangstrom=T Step:=T 0=T Bead:=T pbc="F F F"
C      -42.10900000     -33.09360000     -73.07340000
C      -43.18450000     -32.98140000     -73.94240000
C      -44.11010000     -34.06770000     -74.17010000
C      -43.90210000     -35.16680000     -73.35640000
C      -42.84560000     -35.30600000     -72.44600000
C      -41.90990000     -34.24730000     -72.28510000
H      -41.41010000     -32.26760000     -72.94940000
H      -44.99260000     -33.97970000     -74.81760000
H      -42.77200000     -36.21550000     -71.86860000
H      -41.06530000     -34.19700000     -71.68260000
C      -44.99350000     -36.20250000     -73.35250000
H      -44.90360000     -36.87030000     -74.18130000
H      -45.96280000     -35.63820000     -73.43820000
C      -43.35720000     -31.79680000     -74.75020000
H      -42.66570000     -31.08770000     -74.43610000
H      -43.22360000     -31.95560000     -75.82870000
S      -45.07390000     -37.24790000     -71.85440000
S      -44.98620000     -31.03800000     -74.57590000
C      -45.47490000     -36.03880000     -70.56790000
H      -45.75330000     -36.60960000     -69.69040000
H      -44.69720000     -35.27460000     -70.35250000
C      -45.15980000     -31.04180000     -72.77330000
H      -45.59370000     -30.04610000     -72.50440000
H      -44.24690000     -31.01350000     -72.23240000
C      -45.92560000     -32.19740000     -72.10460000
H      -46.90790000     -32.29740000     -72.47860000
H      -45.40460000     -33.14230000     -72.37790000
C      -46.70350000     -35.11310000     -70.87510000
H      -47.62610000     -35.75910000     -71.06530000
H      -46.62560000     -34.49610000     -71.70510000
C      -47.01270000     -34.24380000     -69.68590000
C      -47.41770000     -34.65490000     -68.40600000
C      -46.57430000     -32.84470000     -69.65370000
H      -47.49800000     -35.67450000     -68.05390000
C      -46.69600000     -32.27880000     -68.33270000
C      -45.99000000     -31.93390000     -70.61140000
C      -45.74400000     -30.68790000     -70.03410000
S      -47.56810000     -33.30440000     -67.23020000
S      -46.28070000     -30.63180000     -68.37100000
H      -45.39220000     -29.77810000     -70.50570000
