40
Properties=species:S:1:pos:R:3 #=T CELL(abcABC):=T 1.889726e+02=T 90.00000=T Traj:=T positionsangstrom=T Step:=T 0=T Bead:=T pbc="F F F"
C      -46.51230000     -33.64840000     -68.17180000
C      -46.22170000     -34.95600000     -68.62640000
C      -47.06250000     -35.50300000     -69.59610000
C      -48.13430000     -34.80620000     -70.16000000
C      -48.46490000     -33.48680000     -69.69090000
C      -47.63350000     -32.92640000     -68.75460000
H      -45.90290000     -33.05380000     -67.49020000
H      -46.74100000     -36.38530000     -70.10620000
H      -49.32020000     -32.91080000     -70.18380000
H      -47.71090000     -31.96210000     -68.40850000
C      -48.98350000     -35.46140000     -71.21910000
H      -49.84580000     -34.84900000     -71.65260000
H      -49.51670000     -36.34170000     -70.83320000
C      -45.10580000     -35.76080000     -68.00490000
H      -45.24590000     -35.78090000     -66.91290000
H      -45.08580000     -36.81580000     -68.35250000
S      -47.90990000     -35.87560000     -72.76430000
S      -43.36880000     -35.13010000     -68.34280000
C      -47.40060000     -34.22840000     -73.21690000
H      -47.34370000     -34.30900000     -74.31150000
H      -48.19000000     -33.48720000     -72.95490000
C      -43.38370000     -33.47230000     -69.15410000
H      -42.46830000     -32.98980000     -68.71330000
H      -44.25500000     -32.84880000     -69.00080000
C      -43.11480000     -33.80390000     -70.65810000
H      -42.17340000     -34.26390000     -70.78810000
H      -43.81540000     -34.58960000     -71.07210000
C      -46.06930000     -33.85560000     -72.48990000
H      -45.44490000     -34.85820000     -72.44230000
H      -46.21020000     -33.61830000     -71.42320000
C      -45.41650000     -32.63680000     -72.96650000
C      -45.93110000     -31.86330000     -74.01830000
C      -44.07530000     -32.21560000     -72.55150000
H      -46.84040000     -32.08180000     -74.65600000
C      -43.71240000     -31.12240000     -73.33120000
C      -43.09090000     -32.57860000     -71.52490000
C      -42.11010000     -31.59630000     -71.49500000
S      -44.82690000     -30.56200000     -74.57080000
S      -42.17010000     -30.44360000     -72.83490000
H      -41.20840000     -31.56370000     -70.92560000
