40
Properties=species:S:1:pos:R:3 #=T CELL(abcABC):=T 1.889726e+02=T 90.00000=T Traj:=T positionsangstrom=T Step:=T 0=T Bead:=T pbc="F F F"
C      -46.71510000     -34.34380000     -67.95530000
C      -46.38020000     -35.41610000     -68.83890000
C      -47.37220000     -35.68720000     -69.85490000
C      -48.35320000     -34.77190000     -70.19920000
C      -48.67770000     -33.77140000     -69.26730000
C      -47.89680000     -33.58740000     -68.12300000
H      -46.06270000     -33.96670000     -67.14440000
H      -47.06800000     -36.38840000     -70.65370000
H      -49.57170000     -33.15090000     -69.44140000
H      -48.16500000     -32.84300000     -67.42850000
C      -49.23190000     -34.91400000     -71.45200000
H      -49.73940000     -33.89600000     -71.49550000
H      -49.93720000     -35.71540000     -71.19750000
C      -45.13080000     -36.17060000     -68.76660000
H      -45.22770000     -37.01900000     -68.08420000
H      -44.94210000     -36.56990000     -69.74360000
S      -48.25340000     -35.38500000     -72.98250000
S      -43.62150000     -35.25920000     -68.19920000
C      -47.32930000     -33.84430000     -73.33530000
H      -47.28400000     -33.92440000     -74.44930000
H      -47.97320000     -32.97250000     -73.09650000
C      -43.76040000     -33.66580000     -69.09800000
H      -43.11220000     -32.92140000     -68.61770000
H      -44.82500000     -33.31000000     -68.97300000
C      -43.34080000     -33.69530000     -70.65950000
H      -42.44900000     -34.35300000     -70.58390000
H      -44.02480000     -34.38070000     -71.10520000
C      -45.93430000     -33.70740000     -72.70850000
H      -45.36600000     -34.63900000     -72.75160000
H      -45.99040000     -33.47160000     -71.60660000
C      -45.08050000     -32.54820000     -73.24960000
C      -45.43640000     -31.80270000     -74.29780000
C      -43.89490000     -32.09510000     -72.58510000
H      -46.27180000     -31.85110000     -75.08360000
C      -43.31020000     -31.01110000     -73.25650000
C      -43.16040000     -32.43980000     -71.38490000
C      -42.04220000     -31.60880000     -71.15620000
S      -44.24490000     -30.50220000     -74.64850000
S      -41.86210000     -30.42050000     -72.42200000
H      -41.21660000     -31.66910000     -70.40270000
