40
Properties=species:S:1:pos:R:3 #=T CELL(abcABC):=T 1.889726e+02=T 90.00000=T Traj:=T positionsangstrom=T Step:=T 0=T Bead:=T pbc="F F F"
C      -46.23520000     -35.39200000     -74.35930000
C      -44.81520000     -35.17890000     -74.13770000
C      -44.21410000     -35.84890000     -73.12040000
C      -44.76980000     -36.73640000     -72.23040000
C      -46.18110000     -37.01970000     -72.39560000
C      -46.79540000     -36.30700000     -73.44750000
H      -46.81910000     -34.96460000     -75.14900000
H      -43.15940000     -35.55610000     -72.89010000
H      -46.78420000     -37.25090000     -71.61510000
H      -47.85260000     -36.39620000     -73.48900000
C      -43.99770000     -37.35450000     -71.07480000
H      -43.02280000     -37.66300000     -71.44560000
H      -44.44210000     -38.29820000     -70.66370000
C      -44.06380000     -34.14630000     -74.94710000
H      -43.31740000     -34.71450000     -75.52300000
H      -44.70730000     -33.56270000     -75.61340000
S      -43.59060000     -36.27910000     -69.63400000
S      -43.12950000     -32.96350000     -73.89310000
C      -45.09990000     -35.24760000     -69.29450000
H      -46.04980000     -35.79200000     -69.47850000
H      -45.25280000     -34.99560000     -68.22520000
C      -44.50160000     -31.97030000     -73.16470000
H      -45.29290000     -32.72640000     -73.04710000
H      -44.78580000     -31.20790000     -73.92650000
C      -43.93790000     -31.40980000     -71.88660000
H      -43.42060000     -32.26160000     -71.33960000
H      -43.07920000     -30.71810000     -72.04650000
C      -45.03820000     -33.96040000     -70.08690000
H      -45.23570000     -34.28890000     -71.13690000
H      -43.91970000     -33.69110000     -70.09770000
C      -45.96530000     -32.90100000     -69.68920000
C      -47.01770000     -33.09130000     -68.82300000
C      -45.85140000     -31.56300000     -70.11970000
H      -47.33600000     -34.07300000     -68.36910000
C      -46.81290000     -30.75630000     -69.55130000
C      -45.05040000     -30.79650000     -71.08130000
C      -45.26450000     -29.41520000     -71.04870000
S      -47.87960000     -31.56620000     -68.50790000
S      -46.79940000     -29.13650000     -70.12800000
H      -44.63520000     -28.63400000     -71.48000000
