40
Properties=species:S:1:pos:R:3 #=T CELL(abcABC):=T 1.889726e+02=T 90.00000=T Traj:=T positionsangstrom=T Step:=T 0=T Bead:=T pbc="F F F"
C      -41.91570000     -33.21680000     -73.09080000
C      -43.02390000     -33.15790000     -73.94270000
C      -43.95170000     -34.16770000     -73.95980000
C      -43.63880000     -35.40940000     -73.44380000
C      -42.36650000     -35.56800000     -72.81990000
C      -41.54520000     -34.48930000     -72.60220000
H      -41.23090000     -32.33020000     -73.06910000
H      -44.90090000     -34.02250000     -74.48690000
H      -42.09730000     -36.60490000     -72.57640000
H      -40.68470000     -34.55740000     -71.95570000
C      -44.52390000     -36.53690000     -73.56210000
H      -43.99930000     -37.41480000     -73.93100000
H      -45.34250000     -36.26640000     -74.22440000
C      -43.34180000     -31.79700000     -74.57330000
H      -42.73420000     -30.97800000     -74.19220000
H      -43.16320000     -31.81450000     -75.69560000
S      -45.16550000     -37.20610000     -71.92950000
S      -45.13250000     -31.09600000     -74.46560000
C      -45.31420000     -35.77700000     -70.71180000
H      -45.22440000     -36.16310000     -69.72310000
H      -44.51980000     -34.99630000     -70.64900000
C      -45.09640000     -30.73260000     -72.71640000
H      -45.71630000     -29.88100000     -72.43830000
H      -44.09700000     -30.41690000     -72.44820000
C      -45.65000000     -31.94390000     -71.93200000
H      -46.50900000     -32.31710000     -72.56490000
H      -45.02590000     -32.82420000     -71.85790000
C      -46.71380000     -35.07940000     -70.86170000
H      -47.45650000     -35.87000000     -70.97100000
H      -46.85790000     -34.43630000     -71.69680000
C      -47.05310000     -34.15030000     -69.69440000
C      -47.55230000     -34.58860000     -68.50850000
C      -46.67060000     -32.73330000     -69.62700000
H      -47.72460000     -35.59630000     -68.35340000
C      -47.01750000     -32.21930000     -68.40440000
C      -46.05680000     -31.74500000     -70.47350000
C      -46.07560000     -30.49630000     -69.87250000
S      -47.70500000     -33.40820000     -67.28400000
S      -46.63030000     -30.55210000     -68.18500000
H      -45.50680000     -29.58420000     -70.18310000
