40
Properties=species:S:1:pos:R:3 #=T CELL(abcABC):=T 1.889726e+02=T 90.00000=T Traj:=T positionsangstrom=T Step:=T 0=T Bead:=T pbc="F F F"
C      -46.55000000     -29.38830000     -72.43430000
C      -47.19230000     -30.56140000     -71.97880000
C      -46.86590000     -31.09110000     -70.66200000
C      -45.99200000     -30.35570000     -69.89020000
C      -45.42590000     -29.17240000     -70.33920000
C      -45.70590000     -28.64370000     -71.56470000
H      -46.84220000     -29.01880000     -73.47610000
H      -47.31380000     -32.06660000     -70.38080000
H      -44.70690000     -28.62360000     -69.67870000
H      -45.28750000     -27.65800000     -71.88180000
C      -45.86110000     -30.77520000     -68.48700000
H      -46.81480000     -31.18090000     -68.05400000
H      -45.86700000     -29.95100000     -67.74320000
C      -47.94370000     -31.41900000     -72.93590000
H      -48.98020000     -31.48750000     -72.70740000
H      -47.82750000     -30.88640000     -73.93190000
S      -44.59550000     -32.09090000     -68.15530000
S      -47.33350000     -33.18740000     -72.85640000
C      -43.49580000     -32.13410000     -69.62510000
H      -43.27080000     -31.10940000     -69.93890000
H      -42.52840000     -32.56200000     -69.38420000
C      -46.28980000     -33.36060000     -74.33810000
H      -46.23170000     -32.34600000     -74.72110000
H      -46.83600000     -34.02810000     -75.03210000
C      -44.87440000     -33.89870000     -73.90370000
H      -44.27270000     -33.90700000     -74.85200000
H      -44.24650000     -33.19780000     -73.38300000
C      -43.91620000     -32.89470000     -70.88330000
H      -43.11440000     -32.68690000     -71.64000000
H      -44.75430000     -32.50610000     -71.27850000
C      -43.99610000     -34.36690000     -70.70360000
C      -43.77730000     -35.05460000     -69.52900000
C      -44.46010000     -35.22950000     -71.77940000
H      -43.49110000     -34.67820000     -68.58400000
C      -44.39050000     -36.55240000     -71.41710000
C      -44.77770000     -35.15580000     -73.19230000
C      -44.86740000     -36.39580000     -73.83520000
S      -43.98070000     -36.77760000     -69.75990000
S      -44.93210000     -37.70330000     -72.62680000
H      -45.28520000     -36.52870000     -74.83310000
