40
Properties=species:S:1:pos:R:3 #=T CELL(abcABC):=T 1.889726e+02=T 90.00000=T Traj:=T positionsangstrom=T Step:=T 0=T Bead:=T pbc="F F F"
C      -46.38150000     -29.43430000     -72.26680000
C      -46.99350000     -30.60210000     -71.77720000
C      -46.73820000     -30.91360000     -70.45800000
C      -45.79260000     -30.16970000     -69.75040000
C      -45.31530000     -28.94080000     -70.16020000
C      -45.49620000     -28.61080000     -71.50250000
H      -46.55890000     -29.23030000     -73.29670000
H      -47.18620000     -31.81280000     -70.21060000
H      -44.66260000     -28.38730000     -69.56010000
H      -45.11080000     -27.74580000     -72.00050000
C      -45.52070000     -30.55830000     -68.35910000
H      -46.42370000     -30.40710000     -67.66910000
H      -44.71810000     -29.94240000     -67.84080000
C      -47.95710000     -31.41500000     -72.65970000
H      -48.94120000     -31.37360000     -72.13650000
H      -48.05700000     -31.03130000     -73.66260000
S      -44.93980000     -32.31520000     -68.34570000
S      -47.43310000     -33.17260000     -72.90910000
C      -43.53850000     -32.17560000     -69.47300000
H      -43.37520000     -31.11550000     -69.62870000
H      -42.60980000     -32.50880000     -69.01740000
C      -46.17940000     -33.19670000     -74.31030000
H      -46.11450000     -32.14940000     -74.65500000
H      -46.58150000     -33.77540000     -75.14270000
C      -44.80430000     -33.77190000     -73.91640000
H      -44.29770000     -33.96420000     -74.90560000
H      -44.11000000     -33.11460000     -73.33200000
C      -43.75350000     -32.97410000     -70.79590000
H      -42.90170000     -32.89560000     -71.41590000
H      -44.62920000     -32.50060000     -71.28300000
C      -44.01130000     -34.49150000     -70.71030000
C      -43.81990000     -35.21330000     -69.55520000
C      -44.40710000     -35.26360000     -71.87820000
H      -43.49330000     -34.77320000     -68.60900000
C      -44.59610000     -36.61780000     -71.51560000
C      -44.76010000     -35.08240000     -73.24720000
C      -45.21640000     -36.27960000     -73.82010000
S      -44.01910000     -36.92250000     -69.87340000
S      -44.94130000     -37.66630000     -72.84260000
H      -45.37430000     -36.40210000     -74.92310000
