40
Properties=species:S:1:pos:R:3 #=T CELL(abcABC):=T 1.889726e+02=T 90.00000=T Traj:=T positionsangstrom=T Step:=T 0=T Bead:=T pbc="F F F"
C      -46.42190000     -29.52010000     -72.51930000
C      -47.05850000     -30.72250000     -72.01030000
C      -46.88700000     -31.05530000     -70.63640000
C      -46.03320000     -30.29880000     -69.82490000
C      -45.53310000     -29.08080000     -70.28360000
C      -45.65190000     -28.72990000     -71.62250000
H      -46.45840000     -29.23110000     -73.55980000
H      -47.43680000     -31.95570000     -70.15350000
H      -44.99190000     -28.45340000     -69.54840000
H      -45.22020000     -27.78420000     -72.00580000
C      -45.85410000     -30.73460000     -68.39230000
H      -46.63580000     -31.24820000     -67.90850000
H      -45.50130000     -29.83920000     -67.76380000
C      -47.89610000     -31.55850000     -72.84300000
H      -48.91720000     -31.57550000     -72.53200000
H      -47.81310000     -31.09160000     -73.85550000
S      -44.46690000     -32.01050000     -68.17330000
S      -47.47630000     -33.40600000     -73.01740000
C      -43.48990000     -31.88980000     -69.75090000
H      -43.50850000     -30.83530000     -70.03150000
H      -42.46980000     -32.11060000     -69.43030000
C      -46.29830000     -33.51160000     -74.43570000
H      -46.23730000     -32.58110000     -74.94330000
H      -46.66130000     -34.26290000     -75.17140000
C      -44.83300000     -33.97530000     -74.00560000
H      -44.28240000     -34.23470000     -74.94290000
H      -44.44760000     -33.09000000     -73.52690000
C      -43.94790000     -32.80180000     -70.83360000
H      -43.19090000     -32.59770000     -71.62890000
H      -44.94970000     -32.54770000     -71.28990000
C      -43.97820000     -34.27770000     -70.66430000
C      -43.69900000     -34.93500000     -69.50370000
C      -44.30300000     -35.23390000     -71.77150000
H      -43.64020000     -34.59160000     -68.50070000
C      -44.26490000     -36.55130000     -71.40520000
C      -44.85340000     -35.15800000     -73.09340000
C      -45.12230000     -36.39190000     -73.65890000
S      -44.07360000     -36.68260000     -69.68650000
S      -44.92220000     -37.66570000     -72.61170000
H      -45.26810000     -36.49040000     -74.73330000
