40
Properties=species:S:1:pos:R:3 #=T CELL(abcABC):=T 1.889726e+02=T 90.00000=T Traj:=T positionsangstrom=T Step:=T 0=T Bead:=T pbc="F F F"
C      -46.12890000     -35.32830000     -74.32760000
C      -44.72430000     -35.17700000     -74.02710000
C      -44.09500000     -35.91360000     -73.01450000
C      -44.86210000     -36.82110000     -72.23940000
C      -46.23710000     -36.96830000     -72.48460000
C      -46.84750000     -36.28230000     -73.56180000
H      -46.59630000     -34.67720000     -75.13000000
H      -43.07850000     -35.77480000     -72.69490000
H      -46.74300000     -37.85390000     -72.22390000
H      -47.93860000     -36.45120000     -73.73970000
C      -44.21230000     -37.58020000     -71.07070000
H      -43.42920000     -38.30190000     -71.31000000
H      -44.99360000     -38.07500000     -70.57530000
C      -43.98450000     -34.14470000     -74.93990000
H      -43.25670000     -34.59000000     -75.57350000
H      -44.60960000     -33.52630000     -75.67600000
S      -43.49330000     -36.37980000     -69.79210000
S      -42.98700000     -32.95170000     -73.97650000
C      -44.87180000     -35.19380000     -69.45290000
H      -45.77920000     -35.81800000     -69.48960000
H      -44.55710000     -34.90750000     -68.45390000
C      -44.27540000     -32.03670000     -72.99410000
H      -44.95260000     -32.71390000     -72.54720000
H      -44.89050000     -31.46450000     -73.72910000
C      -43.90470000     -31.02900000     -71.80480000
H      -43.11160000     -31.44340000     -71.20390000
H      -43.48910000     -30.11920000     -72.28880000
C      -45.04420000     -33.91150000     -70.38600000
H      -45.53440000     -34.13630000     -71.33240000
H      -44.14540000     -33.46220000     -70.57140000
C      -45.97680000     -32.88080000     -69.71970000
C      -46.97300000     -33.15990000     -68.83680000
C      -45.96160000     -31.49600000     -70.18460000
H      -47.15730000     -34.11310000     -68.39920000
C      -47.00270000     -30.81090000     -69.53770000
C      -45.21980000     -30.65690000     -71.10810000
C      -45.65370000     -29.33580000     -71.00560000
S      -47.90640000     -31.73990000     -68.37990000
S      -46.86340000     -29.03500000     -69.88940000
H      -45.26050000     -28.62490000     -71.75050000
