40
Properties=species:S:1:pos:R:3 #=T CELL(abcABC):=T 1.889726e+02=T 90.00000=T Traj:=T positionsangstrom=T Step:=T 0=T Bead:=T pbc="F F F"
C      -46.46430000     -29.39830000     -72.42900000
C      -47.15050000     -30.54510000     -71.96400000
C      -46.90640000     -30.92990000     -70.63910000
C      -45.97350000     -30.23700000     -69.84020000
C      -45.40260000     -29.05510000     -70.32070000
C      -45.69690000     -28.57420000     -71.59990000
H      -46.59910000     -29.28650000     -73.54770000
H      -47.43730000     -31.82980000     -70.33450000
H      -44.83440000     -28.34800000     -69.71270000
H      -45.21670000     -27.69630000     -71.99130000
C      -45.69020000     -30.73590000     -68.47390000
H      -46.67210000     -30.99930000     -68.05300000
H      -45.14670000     -29.98450000     -68.08110000
C      -47.94640000     -31.43230000     -72.85820000
H      -48.98990000     -31.53350000     -72.46990000
H      -48.04860000     -31.10230000     -73.86950000
S      -44.68880000     -32.22900000     -68.16060000
S      -47.33590000     -33.20090000     -72.78990000
C      -43.47480000     -32.26500000     -69.58450000
H      -43.36070000     -31.23230000     -69.82650000
H      -42.52200000     -32.68640000     -69.18220000
C      -46.24780000     -33.26710000     -74.26650000
H      -46.23400000     -32.23590000     -74.68080000
H      -46.54180000     -33.86410000     -75.10890000
C      -44.81740000     -33.78790000     -73.89340000
H      -44.31430000     -33.94840000     -74.83290000
H      -44.32000000     -33.03240000     -73.30390000
C      -43.97410000     -32.94460000     -70.86340000
H      -43.25300000     -32.61950000     -71.64100000
H      -45.00270000     -32.61580000     -71.18970000
C      -43.99040000     -34.46960000     -70.68180000
C      -43.76920000     -35.17520000     -69.50640000
C      -44.41840000     -35.26490000     -71.79150000
H      -43.25210000     -34.82140000     -68.62200000
C      -44.54880000     -36.62790000     -71.43860000
C      -44.76690000     -35.06190000     -73.17600000
C      -45.11810000     -36.26690000     -73.81440000
S      -44.00090000     -36.86350000     -69.83060000
S      -44.83500000     -37.62440000     -72.76000000
H      -45.62250000     -36.43770000     -74.77310000
