40
Properties=species:S:1:pos:R:3 #=T CELL(abcABC):=T 1.889726e+02=T 90.00000=T Traj:=T positionsangstrom=T Step:=T 0=T Bead:=T pbc="F F F"
C      -46.29220000     -29.73110000     -72.56280000
C      -46.98290000     -30.85040000     -71.97020000
C      -46.81120000     -31.16640000     -70.61280000
C      -46.10680000     -30.25780000     -69.83880000
C      -45.56700000     -29.08380000     -70.36300000
C      -45.59210000     -28.87820000     -71.73320000
H      -46.27230000     -29.63100000     -73.62330000
H      -47.07480000     -32.06690000     -70.02150000
H      -45.13820000     -28.43530000     -69.66010000
H      -45.05980000     -28.12830000     -72.25400000
C      -45.67370000     -30.55600000     -68.33510000
H      -46.57930000     -30.90910000     -67.76480000
H      -45.33720000     -29.64010000     -67.95270000
C      -47.94270000     -31.64520000     -72.80670000
H      -48.95510000     -31.53360000     -72.34310000
H      -48.06660000     -31.26900000     -73.78310000
S      -44.48360000     -31.91910000     -68.24380000
S      -47.64700000     -33.50230000     -73.04640000
C      -43.44520000     -31.89450000     -69.77650000
H      -43.38710000     -30.85490000     -70.16170000
H      -42.42770000     -32.24000000     -69.52980000
C      -46.33800000     -33.69040000     -74.40610000
H      -46.35500000     -32.71030000     -74.95230000
H      -46.77310000     -34.38590000     -75.13370000
C      -44.95590000     -33.92370000     -73.94760000
H      -44.32360000     -34.13190000     -74.79440000
H      -44.53490000     -33.08360000     -73.34660000
C      -43.94310000     -32.76040000     -70.96940000
H      -43.31970000     -32.62580000     -71.79400000
H      -44.97380000     -32.27020000     -71.25800000
C      -44.08570000     -34.23140000     -70.71600000
C      -43.72370000     -34.82670000     -69.56120000
C      -44.48630000     -35.19750000     -71.72360000
H      -43.28660000     -34.45470000     -68.64000000
C      -44.51750000     -36.49820000     -71.26340000
C      -44.85390000     -35.17800000     -73.10610000
C      -45.00490000     -36.39680000     -73.70150000
S      -43.87610000     -36.54580000     -69.66040000
S      -44.87120000     -37.65990000     -72.47900000
H      -45.35950000     -36.48270000     -74.74490000
