40
Properties=species:S:1:pos:R:3 #=T CELL(abcABC):=T 1.889726e+02=T 90.00000=T Traj:=T positionsangstrom=T Step:=T 0=T Bead:=T pbc="F F F"
C      -46.94090000     -34.35710000     -67.88160000
C      -46.48150000     -35.28820000     -68.81480000
C      -47.14220000     -35.45150000     -70.05880000
C      -48.44030000     -34.88820000     -70.28550000
C      -48.92990000     -34.00010000     -69.24600000
C      -48.17450000     -33.69850000     -68.12680000
H      -46.32320000     -34.12170000     -67.01140000
H      -46.63310000     -36.03700000     -70.83820000
H      -49.97890000     -33.56910000     -69.35270000
H      -48.53580000     -32.96640000     -67.37780000
C      -49.30990000     -35.26120000     -71.50040000
H      -50.21180000     -34.59550000     -71.43240000
H      -49.60020000     -36.29200000     -71.31750000
C      -45.19170000     -36.04550000     -68.57760000
H      -45.25750000     -36.58700000     -67.71270000
H      -45.01150000     -36.72080000     -69.43930000
S      -48.38690000     -35.14090000     -73.10850000
S      -43.70300000     -35.02670000     -68.26890000
C      -47.45200000     -33.52210000     -73.05150000
H      -47.77790000     -32.75570000     -73.82380000
H      -47.84320000     -33.10100000     -72.10230000
C      -43.52510000     -33.66980000     -69.60690000
H      -42.92520000     -33.04530000     -69.00040000
H      -44.47960000     -33.15510000     -69.64890000
C      -42.90360000     -34.14340000     -70.89840000
H      -41.95320000     -34.60770000     -70.71920000
H      -43.47330000     -34.92210000     -71.33190000
C      -45.92610000     -33.86020000     -72.96840000
H      -45.54560000     -34.55680000     -73.70410000
H      -45.68640000     -34.32360000     -71.99410000
C      -45.06160000     -32.56240000     -73.19760000
C      -45.51110000     -31.59590000     -74.04290000
C      -43.75430000     -32.24950000     -72.61620000
H      -46.32320000     -31.70640000     -74.64450000
C      -43.31220000     -30.97050000     -72.99830000
C      -42.77850000     -32.88250000     -71.82460000
C      -41.59090000     -32.11140000     -71.61370000
S      -44.42070000     -30.18700000     -74.10190000
S      -41.73120000     -30.57960000     -72.33420000
H      -40.79780000     -32.50290000     -71.00390000
