40
Properties=species:S:1:pos:R:3 #=T CELL(abcABC):=T 1.889726e+02=T 90.00000=T Traj:=T positionsangstrom=T Step:=T 0=T Bead:=T pbc="F F F"
C      -46.77100000     -34.42810000     -67.97460000
C      -46.41730000     -35.39410000     -68.93180000
C      -47.24020000     -35.53150000     -70.06710000
C      -48.36790000     -34.75500000     -70.24890000
C      -48.67910000     -33.77420000     -69.29710000
C      -47.88820000     -33.65900000     -68.18570000
H      -46.08640000     -34.34810000     -67.12290000
H      -47.13610000     -36.45050000     -70.64520000
H      -49.56740000     -33.19440000     -69.36480000
H      -48.13080000     -33.00980000     -67.34630000
C      -49.24170000     -35.09530000     -71.46200000
H      -50.11310000     -34.54220000     -71.62670000
H      -49.74280000     -36.04200000     -71.30560000
C      -45.19510000     -36.27890000     -68.78630000
H      -45.37590000     -37.03850000     -67.99130000
H      -44.87090000     -36.76700000     -69.65940000
S      -48.29530000     -35.28180000     -72.93710000
S      -43.78480000     -35.20850000     -68.22510000
C      -47.37870000     -33.67050000     -73.20150000
H      -47.52660000     -33.34770000     -74.20910000
H      -47.93100000     -32.86900000     -72.61420000
C      -43.73730000     -33.61730000     -69.27070000
H      -43.20180000     -32.96970000     -68.55540000
H      -44.71060000     -33.21390000     -69.37520000
C      -43.09930000     -33.83350000     -70.62150000
H      -42.08790000     -34.20220000     -70.65840000
H      -43.65340000     -34.50470000     -71.26540000
C      -45.82580000     -33.84290000     -72.84420000
H      -45.34810000     -34.69340000     -73.35940000
H      -45.76200000     -34.12670000     -71.77190000
C      -45.11180000     -32.56350000     -73.19770000
C      -45.40110000     -31.78880000     -74.24800000
C      -43.90680000     -32.10350000     -72.49460000
H      -46.23050000     -31.87790000     -74.99820000
C      -43.37680000     -30.96820000     -73.05500000
C      -43.01720000     -32.55210000     -71.42560000
C      -41.85810000     -31.73590000     -71.35970000
S      -44.23900000     -30.41450000     -74.43930000
S      -41.88560000     -30.40260000     -72.44630000
H      -41.02570000     -32.00020000     -70.73510000
