40
Properties=species:S:1:pos:R:3 #=T CELL(abcABC):=T 1.889726e+02=T 90.00000=T Traj:=T positionsangstrom=T Step:=T 0=T Bead:=T pbc="F F F"
C      -46.51250000     -30.69740000     -73.38230000
C      -47.27970000     -31.24750000     -72.35400000
C      -46.94470000     -31.00410000     -70.97520000
C      -45.83810000     -30.20120000     -70.70600000
C      -45.15630000     -29.57720000     -71.74850000
C      -45.40190000     -29.88950000     -73.09130000
H      -46.74850000     -30.85270000     -74.39780000
H      -47.47180000     -31.45880000     -70.07390000
H      -44.26050000     -29.05710000     -71.48910000
H      -44.76740000     -29.45590000     -73.84150000
C      -45.42760000     -29.91810000     -69.26750000
H      -46.34680000     -29.70290000     -68.61010000
H      -44.72170000     -29.08540000     -69.14320000
C      -48.50660000     -32.10810000     -72.54900000
H      -49.11360000     -31.96660000     -71.69610000
H      -49.16590000     -31.79600000     -73.36770000
S      -44.75790000     -31.38740000     -68.41040000
S      -48.17230000     -33.95320000     -72.80730000
C      -43.19890000     -31.81610000     -69.35570000
H      -42.63180000     -30.94620000     -69.55080000
H      -42.75340000     -32.49890000     -68.64400000
C      -46.79350000     -33.77830000     -74.03380000
H      -46.91520000     -32.85040000     -74.55630000
H      -46.90090000     -34.49740000     -74.79550000
C      -45.39550000     -33.73820000     -73.45220000
H      -44.54820000     -33.69430000     -74.14770000
H      -45.27360000     -32.87680000     -72.78480000
C      -43.43660000     -32.56830000     -70.69620000
H      -42.49250000     -32.34580000     -71.30430000
H      -44.29880000     -32.18190000     -71.27470000
C      -43.59330000     -34.03360000     -70.55270000
C      -42.89340000     -34.74420000     -69.57680000
C      -44.25870000     -35.02370000     -71.45620000
H      -42.25150000     -34.25480000     -68.81920000
C      -44.13680000     -36.30770000     -70.96060000
C      -45.14450000     -34.92400000     -72.57180000
C      -45.68070000     -36.18760000     -72.88600000
S      -43.12250000     -36.48220000     -69.53100000
S      -45.10060000     -37.39920000     -71.83350000
H      -46.42340000     -36.32310000     -73.74950000
