40
Properties=species:S:1:pos:R:3 #=T CELL(abcABC):=T 1.889726e+02=T 90.00000=T Traj:=T positionsangstrom=T Step:=T 0=T Bead:=T pbc="F F F"
C      -46.65010000     -30.34290000     -73.22870000
C      -47.38460000     -30.98740000     -72.20030000
C      -46.97720000     -30.96390000     -70.86540000
C      -45.85600000     -30.15610000     -70.50910000
C      -45.20610000     -29.39900000     -71.53190000
C      -45.61660000     -29.52810000     -72.85530000
H      -46.89840000     -30.47150000     -74.28770000
H      -47.46260000     -31.49310000     -70.05840000
H      -44.33050000     -28.78100000     -71.22510000
H      -45.03460000     -28.97890000     -73.59980000
C      -45.43940000     -30.13380000     -68.99890000
H      -46.20560000     -29.93330000     -68.29730000
H      -44.68510000     -29.41450000     -68.75830000
C      -48.48150000     -31.94280000     -72.58150000
H      -49.28390000     -32.06270000     -71.79460000
H      -48.90590000     -31.60500000     -73.49430000
S      -44.71260000     -31.77560000     -68.42870000
S      -47.91090000     -33.62260000     -72.72220000
C      -43.22760000     -31.81530000     -69.54780000
H      -43.06390000     -30.75650000     -69.73590000
H      -42.37310000     -32.12090000     -68.98920000
C      -46.58830000     -33.58570000     -74.05090000
H      -46.54450000     -32.65880000     -74.56110000
H      -46.65600000     -34.40640000     -74.78800000
C      -45.25120000     -33.71960000     -73.45510000
H      -44.48630000     -33.70370000     -74.18730000
H      -45.01600000     -32.88930000     -72.77560000
C      -43.56000000     -32.66890000     -70.77210000
H      -42.80010000     -32.49630000     -71.55910000
H      -44.52900000     -32.22600000     -71.14450000
C      -43.78290000     -34.14790000     -70.56780000
C      -43.29350000     -34.77110000     -69.46120000
C      -44.36510000     -35.12830000     -71.47390000
H      -42.77580000     -34.30170000     -68.67700000
C      -44.07610000     -36.43030000     -71.08100000
C      -45.00850000     -35.05290000     -72.76340000
C      -45.33510000     -36.32000000     -73.27770000
S      -43.45160000     -36.52860000     -69.44030000
S      -44.89130000     -37.57660000     -72.14480000
H      -46.00970000     -36.58850000     -74.10530000
