40
Properties=species:S:1:pos:R:3 #=T CELL(abcABC):=T 1.889726e+02=T 90.00000=T Traj:=T positionsangstrom=T Step:=T 0=T Bead:=T pbc="F F F"
C      -46.58770000     -30.04020000     -73.09430000
C      -47.29220000     -30.91830000     -72.21170000
C      -47.07930000     -30.89210000     -70.82130000
C      -45.97080000     -30.14210000     -70.28850000
C      -45.13420000     -29.43540000     -71.20840000
C      -45.52560000     -29.27930000     -72.53360000
H      -46.84760000     -29.88650000     -74.17670000
H      -47.68190000     -31.55680000     -70.17260000
H      -44.17880000     -28.94000000     -70.90400000
H      -44.85810000     -28.61540000     -73.11910000
C      -45.62460000     -30.19440000     -68.85730000
H      -46.56150000     -30.25100000     -68.26850000
H      -44.95140000     -29.25300000     -68.70300000
C      -48.41080000     -31.77460000     -72.71390000
H      -49.35480000     -31.82470000     -72.12780000
H      -48.72800000     -31.51680000     -73.74880000
S      -44.69610000     -31.77170000     -68.45520000
S      -47.88010000     -33.61500000     -72.64180000
C      -43.21490000     -31.84020000     -69.63210000
H      -43.02030000     -30.93250000     -70.16980000
H      -42.35250000     -32.22310000     -69.08710000
C      -46.59220000     -33.62550000     -74.06180000
H      -46.90060000     -32.69660000     -74.56630000
H      -46.93060000     -34.37700000     -74.78990000
C      -45.11720000     -33.78510000     -73.72760000
H      -44.65330000     -34.01750000     -74.75520000
H      -44.73870000     -32.90650000     -73.27470000
C      -43.62410000     -32.73680000     -70.78770000
H      -43.00040000     -32.63320000     -71.60800000
H      -44.65250000     -32.45160000     -71.17630000
C      -43.73330000     -34.26230000     -70.50640000
C      -43.40290000     -34.94330000     -69.36570000
C      -44.33050000     -35.15860000     -71.50870000
H      -42.87190000     -34.49800000     -68.52960000
C      -44.28830000     -36.46220000     -71.05780000
C      -44.88400000     -35.02780000     -72.89110000
C      -45.16530000     -36.26760000     -73.41340000
S      -43.67240000     -36.67450000     -69.47300000
S      -44.74370000     -37.54850000     -72.32020000
H      -45.41330000     -36.59910000     -74.39950000
