40
Properties=species:S:1:pos:R:3 #=T CELL(abcABC):=T 1.889726e+02=T 90.00000=T Traj:=T positionsangstrom=T Step:=T 0=T Bead:=T pbc="F F F"
C      -48.97640000     -32.42980000     -69.73030000
C      -47.77700000     -32.37000000     -68.97260000
C      -46.78180000     -31.40670000     -69.33630000
C      -47.03330000     -30.55630000     -70.44450000
C      -48.28900000     -30.58360000     -71.04960000
C      -49.29700000     -31.53350000     -70.70160000
H      -49.71720000     -33.13290000     -69.31160000
H      -45.80500000     -31.40590000     -68.87940000
H      -48.45710000     -29.93450000     -71.95400000
H      -50.33140000     -31.45080000     -71.19460000
C      -46.00800000     -29.57580000     -70.87880000
H      -45.17730000     -29.55800000     -70.19930000
H      -46.51420000     -28.64030000     -70.77350000
C      -47.64540000     -33.30010000     -67.79540000
H      -47.22800000     -32.78040000     -66.91340000
H      -48.67110000     -33.57490000     -67.48780000
S      -45.58120000     -29.83590000     -72.69570000
S      -46.75820000     -34.86860000     -68.11280000
C      -45.24570000     -31.66820000     -72.67070000
H      -46.17060000     -32.11490000     -72.42020000
H      -45.00690000     -31.91410000     -73.75460000
C      -45.52040000     -34.72610000     -69.47200000
H      -44.80710000     -35.52790000     -69.21650000
H      -44.84050000     -33.84110000     -69.36480000
C      -46.06300000     -34.82830000     -70.98150000
H      -46.88990000     -35.56940000     -71.04800000
H      -46.47010000     -33.83740000     -71.29640000
C      -44.08200000     -32.10560000     -71.82900000
H      -44.32520000     -32.36930000     -70.86270000
H      -43.39120000     -31.31530000     -71.83530000
C      -43.29580000     -33.33100000     -72.36830000
C      -42.14840000     -33.15850000     -73.08840000
C      -43.71560000     -34.70760000     -72.26230000
H      -41.76670000     -32.20190000     -73.38890000
C      -42.82240000     -35.55220000     -72.95630000
C      -44.89730000     -35.36170000     -71.81130000
C      -44.95580000     -36.69410000     -72.12920000
S      -41.51260000     -34.65620000     -73.61490000
S      -43.50460000     -37.22700000     -72.97390000
H      -45.59200000     -37.50790000     -71.87620000
