40
Properties=species:S:1:pos:R:3 #=T CELL(abcABC):=T 1.889726e+02=T 90.00000=T Traj:=T positionsangstrom=T Step:=T 0=T Bead:=T pbc="F F F"
C      -46.91520000     -30.62030000     -73.98170000
C      -47.51550000     -31.49500000     -73.06290000
C      -47.13980000     -31.39300000     -71.76180000
C      -46.31680000     -30.30660000     -71.30720000
C      -45.81080000     -29.33370000     -72.19850000
C      -46.18180000     -29.54930000     -73.54600000
H      -47.06200000     -30.73340000     -75.04330000
H      -47.38510000     -32.05500000     -70.93700000
H      -45.17670000     -28.52080000     -71.92730000
H      -45.87300000     -28.96520000     -74.34960000
C      -46.13450000     -30.20250000     -69.86020000
H      -47.14330000     -30.38670000     -69.39190000
H      -45.67480000     -29.27540000     -69.50180000
C      -48.57500000     -32.48400000     -73.50020000
H      -49.55330000     -32.24240000     -73.04760000
H      -48.58450000     -32.60060000     -74.56920000
S      -45.08740000     -31.61710000     -69.24920000
S      -48.16900000     -34.27710000     -72.96480000
C      -43.58050000     -31.33780000     -70.24450000
H      -43.70580000     -30.37710000     -70.77230000
H      -42.72360000     -31.06410000     -69.59800000
C      -46.57280000     -34.65720000     -73.76860000
H      -46.57740000     -34.35220000     -74.83770000
H      -46.59940000     -35.70990000     -73.90890000
C      -45.32590000     -34.16220000     -72.96980000
H      -44.54570000     -34.21630000     -73.66560000
H      -45.43220000     -33.14980000     -72.58100000
C      -43.14790000     -32.38970000     -71.24900000
H      -42.13760000     -32.09290000     -71.50310000
H      -43.70900000     -32.28250000     -72.16530000
C      -43.15220000     -33.78580000     -70.63850000
C      -42.22640000     -34.02220000     -69.53230000
C      -43.91890000     -34.96200000     -70.95080000
H      -41.49490000     -33.35370000     -69.17660000
C      -43.74500000     -36.01360000     -70.07930000
C      -45.09390000     -35.18380000     -71.83660000
C      -45.72580000     -36.32590000     -71.53870000
S      -42.44870000     -35.69080000     -68.87330000
S      -44.80610000     -37.39110000     -70.37410000
H      -46.50910000     -36.80870000     -72.19750000
