40
Properties=species:S:1:pos:R:3 #=T CELL(abcABC):=T 1.889726e+02=T 90.00000=T Traj:=T positionsangstrom=T Step:=T 0=T Bead:=T pbc="F F F"
C      -41.69260000     -31.87230000     -72.41770000
C      -42.54950000     -32.44780000     -73.39310000
C      -42.86520000     -33.82140000     -73.40820000
C      -42.27730000     -34.63190000     -72.35240000
C      -41.53100000     -34.10270000     -71.33580000
C      -41.21480000     -32.73360000     -71.40280000
H      -41.53280000     -30.80900000     -72.44190000
H      -43.53180000     -34.26440000     -74.12910000
H      -41.09900000     -34.74570000     -70.53980000
H      -40.63000000     -32.22550000     -70.62450000
C      -42.58960000     -36.05560000     -72.31010000
H      -41.75260000     -36.66870000     -72.50090000
H      -43.32730000     -36.32270000     -73.06530000
C      -43.14600000     -31.43730000     -74.45120000
H      -42.77300000     -30.44960000     -74.17110000
H      -42.81670000     -31.60260000     -75.51990000
S      -43.20800000     -36.63220000     -70.68000000
S      -45.01560000     -31.40150000     -74.61450000
C      -44.46530000     -35.33650000     -70.13280000
H      -44.61410000     -35.46010000     -69.06310000
H      -43.92000000     -34.40830000     -70.29230000
C      -45.62130000     -31.04800000     -72.91960000
H      -46.66250000     -30.78930000     -73.04060000
H      -45.11030000     -30.05260000     -72.51730000
C      -45.49180000     -32.03920000     -71.75900000
H      -45.18330000     -33.07390000     -71.97360000
H      -44.73820000     -31.58710000     -71.08320000
C      -45.84110000     -35.33700000     -70.92050000
H      -45.99620000     -36.40460000     -71.14440000
H      -45.79520000     -34.85020000     -71.90070000
C      -46.92930000     -34.64270000     -70.09800000
C      -47.71270000     -35.40650000     -69.21480000
C      -47.27290000     -33.22010000     -70.18460000
H      -47.78370000     -36.42860000     -68.93480000
C      -48.37060000     -32.95690000     -69.36780000
C      -46.83500000     -32.11710000     -70.97220000
C      -47.71080000     -31.05510000     -70.82760000
S      -48.95630000     -34.34210000     -68.50010000
S      -48.97410000     -31.40090000     -69.53180000
H      -47.55810000     -30.02220000     -71.21990000
