40
Properties=species:S:1:pos:R:3 #=T CELL(abcABC):=T 1.889726e+02=T 90.00000=T Traj:=T positionsangstrom=T Step:=T 0=T Bead:=T pbc="F F F"
C      -41.90570000     -31.63480000     -72.18210000
C      -42.48970000     -32.23380000     -73.30990000
C      -42.62570000     -33.66590000     -73.32520000
C      -42.18300000     -34.40970000     -72.29740000
C      -41.59540000     -33.85130000     -71.07600000
C      -41.46180000     -32.44280000     -71.08890000
H      -41.56040000     -30.62420000     -72.23930000
H      -43.07020000     -34.21070000     -74.23780000
H      -41.49760000     -34.37080000     -70.14390000
H      -40.94260000     -31.90680000     -70.35500000
C      -42.32630000     -35.96830000     -72.24460000
H      -41.33570000     -36.31130000     -72.25840000
H      -42.84800000     -36.38960000     -73.05110000
C      -43.03520000     -31.40900000     -74.44760000
H      -42.83860000     -30.31310000     -74.27700000
H      -42.54890000     -31.73310000     -75.37290000
S      -43.19430000     -36.62520000     -70.70540000
S      -44.88110000     -31.70170000     -74.58800000
C      -44.55320000     -35.37400000     -70.17210000
H      -44.62470000     -35.75450000     -69.15720000
H      -44.23890000     -34.37910000     -70.05990000
C      -45.46890000     -31.16160000     -72.91480000
H      -46.48540000     -30.61930000     -73.02400000
H      -44.81960000     -30.36200000     -72.64110000
C      -45.47450000     -32.21740000     -71.82760000
H      -45.44880000     -33.22300000     -72.29180000
H      -44.69740000     -32.14330000     -71.07030000
C      -45.92840000     -35.53580000     -70.82080000
H      -46.06220000     -36.65440000     -70.73290000
H      -45.83470000     -35.19760000     -71.86290000
C      -47.00010000     -34.74910000     -70.04220000
C      -47.90570000     -35.40300000     -69.25970000
C      -47.40740000     -33.34350000     -70.27690000
H      -47.72410000     -36.40030000     -68.84880000
C      -48.54160000     -32.99360000     -69.56270000
C      -46.78930000     -32.23450000     -70.99190000
C      -47.49440000     -31.05780000     -70.83460000
S      -49.24970000     -34.37590000     -68.72520000
S      -48.83570000     -31.27290000     -69.64680000
H      -47.20060000     -30.10270000     -71.20060000
