40
Properties=species:S:1:pos:R:3 #=T CELL(abcABC):=T 1.889726e+02=T 90.00000=T Traj:=T positionsangstrom=T Step:=T 0=T Bead:=T pbc="F F F"
C      -41.39980000     -31.88880000     -72.67210000
C      -42.64410000     -32.18760000     -73.30960000
C      -43.17310000     -33.48190000     -73.13570000
C      -42.51650000     -34.41960000     -72.32800000
C      -41.37530000     -34.08320000     -71.54430000
C      -40.82950000     -32.86040000     -71.87000000
H      -41.05960000     -30.87500000     -72.76720000
H      -43.96000000     -33.79350000     -73.80840000
H      -40.79790000     -34.92320000     -71.07020000
H      -39.83060000     -32.62390000     -71.49090000
C      -42.92780000     -35.89250000     -72.40600000
H      -42.05600000     -36.44290000     -72.87410000
H      -43.79600000     -35.94160000     -73.02690000
C      -43.29880000     -31.26030000     -74.28610000
H      -43.17680000     -30.18630000     -73.99980000
H      -42.75160000     -31.26470000     -75.20440000
S      -43.11750000     -36.70310000     -70.77960000
S      -45.09230000     -31.54360000     -74.72530000
C      -44.53080000     -35.80210000     -69.92260000
H      -44.97780000     -36.38350000     -69.12790000
H      -44.17130000     -34.84040000     -69.45820000
C      -45.79380000     -31.04250000     -73.03320000
H      -46.79240000     -30.52710000     -73.17560000
H      -45.01860000     -30.44390000     -72.65350000
C      -46.00430000     -32.37890000     -72.11620000
H      -46.27620000     -33.21070000     -72.70980000
H      -45.00630000     -32.61300000     -71.72720000
C      -45.66050000     -35.24130000     -70.86090000
H      -46.04970000     -36.06630000     -71.47220000
H      -45.17350000     -34.54170000     -71.57420000
C      -46.90220000     -34.63810000     -70.03920000
C      -47.66970000     -35.40520000     -69.23060000
C      -47.28570000     -33.27640000     -70.08660000
H      -47.79480000     -36.45620000     -69.02910000
C      -48.22640000     -32.87450000     -69.13780000
C      -46.92260000     -32.20660000     -70.94200000
C      -47.63140000     -31.09130000     -70.68520000
S      -48.90000000     -34.36180000     -68.41960000
S      -48.73880000     -31.21950000     -69.28340000
H      -47.80000000     -30.14190000     -71.11280000
