40
Properties=species:S:1:pos:R:3 #=T CELL(abcABC):=T 1.889726e+02=T 90.00000=T Traj:=T positionsangstrom=T Step:=T 0=T Bead:=T pbc="F F F"
C      -41.51020000     -31.91330000     -72.64980000
C      -42.71530000     -32.17710000     -73.33390000
C      -43.10900000     -33.51570000     -73.41350000
C      -42.46160000     -34.48390000     -72.69250000
C      -41.21470000     -34.21200000     -72.10850000
C      -40.67820000     -32.94290000     -72.20240000
H      -41.05170000     -30.94770000     -72.84610000
H      -43.99180000     -33.73150000     -74.02980000
H      -40.66490000     -35.05260000     -71.70810000
H      -39.71990000     -32.67200000     -71.78480000
C      -42.89350000     -35.97020000     -72.67040000
H      -42.01430000     -36.64150000     -72.92130000
H      -43.76410000     -36.27880000     -73.29240000
C      -43.41170000     -31.11640000     -74.21930000
H      -43.58950000     -30.16160000     -73.69180000
H      -42.85110000     -30.92840000     -75.16300000
S      -43.36740000     -36.49840000     -70.91030000
S      -45.18990000     -31.61300000     -74.63920000
C      -44.68970000     -35.23310000     -70.63410000
H      -44.44830000     -34.82310000     -69.69390000
H      -44.52300000     -34.45830000     -71.38390000
C      -46.15410000     -31.28940000     -73.12760000
H      -47.21260000     -31.02890000     -73.47700000
H      -45.72350000     -30.45400000     -72.61820000
C      -46.03950000     -32.53120000     -72.15640000
H      -46.31620000     -33.52490000     -72.65160000
H      -45.05480000     -32.60800000     -71.70390000
C      -46.15960000     -35.74990000     -70.72730000
H      -46.27070000     -36.75080000     -70.30410000
H      -46.40820000     -35.78450000     -71.79920000
C      -47.05030000     -34.87400000     -69.96730000
C      -47.69560000     -35.28090000     -68.82030000
C      -47.17030000     -33.37400000     -69.97400000
H      -47.81200000     -36.30030000     -68.46640000
C      -47.90610000     -32.87200000     -68.92630000
C      -46.91890000     -32.36270000     -70.93250000
C      -47.55410000     -31.10690000     -70.63760000
S      -48.54350000     -34.09310000     -67.80730000
S      -48.47010000     -31.22720000     -69.18480000
H      -47.47050000     -30.12530000     -71.03170000
