40
Properties=species:S:1:pos:R:3 #=T CELL(abcABC):=T 1.889726e+02=T 90.00000=T Traj:=T positionsangstrom=T Step:=T 0=T Bead:=T pbc="F F F"
C      -45.93120000     -35.35070000     -74.64870000
C      -44.59740000     -35.03780000     -74.29740000
C      -44.11110000     -35.84130000     -73.17350000
C      -44.96980000     -36.64810000     -72.33560000
C      -46.30620000     -36.76440000     -72.64550000
C      -46.67300000     -36.20990000     -73.87340000
H      -46.38320000     -34.74110000     -75.42060000
H      -43.01490000     -35.79950000     -73.15070000
H      -47.05670000     -37.23960000     -72.01620000
H      -47.66830000     -36.41630000     -74.13580000
C      -44.46030000     -37.31700000     -71.08530000
H      -43.87830000     -38.17450000     -71.35400000
H      -45.24900000     -37.68360000     -70.49000000
C      -43.75800000     -33.99180000     -74.95840000
H      -42.84100000     -34.49500000     -75.39810000
H      -44.32910000     -33.57800000     -75.76350000
S      -43.34530000     -36.43680000     -70.00250000
S      -43.05420000     -32.70500000     -73.77030000
C      -44.50010000     -35.17560000     -69.24130000
H      -45.40350000     -35.69070000     -68.96230000
H      -44.00760000     -34.92650000     -68.27870000
C      -44.46730000     -31.69980000     -73.04590000
H      -45.30590000     -32.40900000     -73.03820000
H      -44.69120000     -30.92070000     -73.75690000
C      -44.11780000     -31.04670000     -71.67270000
H      -43.47720000     -31.75550000     -71.15680000
H      -43.43620000     -30.31280000     -71.99680000
C      -44.80870000     -33.95810000     -70.27460000
H      -45.32320000     -34.27670000     -71.17270000
H      -43.92370000     -33.36530000     -70.57610000
C      -45.89140000     -33.02980000     -69.68260000
C      -46.94480000     -33.37870000     -68.96570000
C      -45.93680000     -31.60120000     -70.06320000
H      -47.21850000     -34.36790000     -68.60160000
C      -46.96530000     -30.95220000     -69.40030000
C      -45.24960000     -30.66530000     -70.86480000
C      -45.68820000     -29.39250000     -70.69380000
S      -48.00580000     -32.01960000     -68.52060000
S      -47.10450000     -29.23990000     -69.67390000
H      -45.18430000     -28.45590000     -70.96170000
