40
Properties=species:S:1:pos:R:3 #=T CELL(abcABC):=T 1.889726e+02=T 90.00000=T Traj:=T positionsangstrom=T Step:=T 0=T Bead:=T pbc="F F F"
C      -45.88390000     -37.06410000     -71.46730000
C      -45.10190000     -36.71870000     -70.37970000
C      -43.78730000     -36.19080000     -70.55010000
C      -43.19980000     -36.17530000     -71.87340000
C      -44.05640000     -36.52060000     -72.91770000
C      -45.33320000     -36.95770000     -72.72950000
H      -46.91110000     -37.38730000     -71.42390000
H      -43.11220000     -35.90110000     -69.74650000
H      -43.70010000     -36.59160000     -73.89770000
H      -45.88100000     -37.29100000     -73.66950000
C      -41.78790000     -35.65420000     -72.19350000
H      -41.62650000     -35.69550000     -73.26110000
H      -40.99610000     -36.26140000     -71.68820000
C      -45.87880000     -36.88500000     -69.03370000
H      -46.85160000     -37.30010000     -69.29330000
H      -45.37960000     -37.45720000     -68.28780000
S      -41.52380000     -33.95060000     -71.62470000
S      -46.28500000     -35.25240000     -68.18450000
C      -42.80630000     -32.76890000     -72.24100000
H      -42.26630000     -31.88510000     -72.40720000
H      -43.12910000     -33.20880000     -73.22640000
C      -46.88660000     -34.15790000     -69.53130000
H      -47.91180000     -34.28850000     -69.77100000
H      -46.41020000     -34.55650000     -70.49650000
C      -46.72260000     -32.67200000     -69.27400000
H      -47.37190000     -32.42900000     -68.32470000
H      -45.68010000     -32.57570000     -69.02950000
C      -43.96170000     -32.52970000     -71.34330000
H      -43.63260000     -32.36050000     -70.36550000
H      -44.51460000     -33.48090000     -71.23450000
C      -44.84680000     -31.46660000     -71.92950000
C      -44.51200000     -30.54100000     -72.95090000
C      -46.23220000     -31.28390000     -71.55650000
H      -43.52390000     -30.33330000     -73.35100000
C      -46.91000000     -30.38030000     -72.40510000
C      -47.07150000     -31.84430000     -70.50320000
C      -48.37580000     -31.35510000     -70.64490000
S      -45.86180000     -29.56590000     -73.51460000
S      -48.60820000     -30.27930000     -71.94510000
H      -49.12710000     -31.65240000     -69.87330000
