40
Properties=species:S:1:pos:R:3 #=T CELL(abcABC):=T 1.889726e+02=T 90.00000=T Traj:=T positionsangstrom=T Step:=T 0=T Bead:=T pbc="F F F"
C      -45.84880000     -36.98720000     -71.75130000
C      -45.13480000     -36.75310000     -70.57450000
C      -43.81920000     -36.29810000     -70.68560000
C      -43.28590000     -36.05790000     -71.97270000
C      -44.05710000     -36.32690000     -73.12590000
C      -45.32540000     -36.85260000     -72.99790000
H      -46.81710000     -37.45740000     -71.57330000
H      -43.16250000     -36.28120000     -69.83100000
H      -43.62490000     -36.20050000     -74.16990000
H      -45.93760000     -37.00700000     -73.83250000
C      -41.88490000     -35.63420000     -72.20210000
H      -41.61950000     -35.68400000     -73.28820000
H      -41.09130000     -36.25120000     -71.71520000
C      -45.81850000     -36.93020000     -69.23320000
H      -46.68450000     -37.57030000     -69.32520000
H      -45.19290000     -37.51740000     -68.53810000
S      -41.61300000     -33.99790000     -71.51300000
S      -46.14190000     -35.28630000     -68.39380000
C      -42.87600000     -32.93890000     -72.24250000
H      -42.38850000     -31.92500000     -72.44360000
H      -43.13050000     -33.37660000     -73.20670000
C      -47.00380000     -34.26820000     -69.65590000
H      -48.11430000     -34.46990000     -69.82800000
H      -46.54110000     -34.47070000     -70.63900000
C      -46.76680000     -32.79830000     -69.25250000
H      -47.48260000     -32.49390000     -68.36080000
H      -45.67900000     -32.85200000     -68.88500000
C      -44.11330000     -32.69070000     -71.37630000
H      -43.80950000     -32.44180000     -70.32570000
H      -44.66800000     -33.59480000     -71.40360000
C      -44.91420000     -31.60000000     -72.01030000
C      -44.62420000     -30.93880000     -73.16370000
C      -46.16640000     -31.22910000     -71.42830000
H      -43.73400000     -31.05720000     -73.74360000
C      -46.87540000     -30.31690000     -72.20550000
C      -47.01600000     -31.69960000     -70.28210000
C      -48.16200000     -31.01180000     -70.12010000
S      -45.96390000     -29.78570000     -73.59380000
S      -48.41460000     -29.88430000     -71.45360000
H      -48.94440000     -31.01390000     -69.24680000
