40
Properties=species:S:1:pos:R:3 #=T CELL(abcABC):=T 1.889726e+02=T 90.00000=T Traj:=T positionsangstrom=T Step:=T 0=T Bead:=T pbc="F F F"
C      -45.94650000     -37.28310000     -71.38950000
C      -45.22610000     -36.72240000     -70.33430000
C      -43.93850000     -36.23310000     -70.57340000
C      -43.46750000     -36.11490000     -71.87480000
C      -44.29700000     -36.42710000     -72.96450000
C      -45.48250000     -37.12920000     -72.68130000
H      -46.96920000     -37.71430000     -71.30100000
H      -43.33910000     -36.01900000     -69.77380000
H      -43.99390000     -36.12030000     -73.98370000
H      -46.21140000     -37.42690000     -73.41510000
C      -42.06440000     -35.59160000     -72.07670000
H      -41.71620000     -35.43540000     -73.14750000
H      -41.40290000     -36.27720000     -71.55130000
C      -45.83470000     -36.76510000     -68.90530000
H      -46.84500000     -37.05100000     -68.99070000
H      -45.23000000     -37.35530000     -68.17970000
S      -41.63270000     -33.96550000     -71.14110000
S      -45.87540000     -35.01310000     -68.25010000
C      -42.59540000     -32.53580000     -71.72260000
H      -42.00240000     -31.65840000     -71.48560000
H      -42.81000000     -32.56500000     -72.83590000
C      -46.50010000     -34.05850000     -69.73560000
H      -47.29940000     -34.60050000     -70.24060000
H      -45.69380000     -34.10460000     -70.47370000
C      -46.85970000     -32.58120000     -69.35160000
H      -47.80670000     -32.50860000     -68.73050000
H      -46.08750000     -32.20630000     -68.70580000
C      -43.96100000     -32.28440000     -71.02090000
H      -43.69580000     -32.04850000     -69.98340000
H      -44.44420000     -33.21840000     -70.89590000
C      -44.84230000     -31.30730000     -71.76790000
C      -44.45850000     -30.60470000     -72.90820000
C      -46.27920000     -31.24990000     -71.58020000
H      -43.51740000     -30.48540000     -73.39400000
C      -46.88180000     -30.56180000     -72.60020000
C      -47.17590000     -31.77690000     -70.59610000
C      -48.46780000     -31.52200000     -70.94940000
S      -45.79800000     -29.76750000     -73.68880000
S      -48.61580000     -30.52300000     -72.43190000
H      -49.30390000     -31.80100000     -70.39450000
