40
Properties=species:S:1:pos:R:3 #=T CELL(abcABC):=T 1.889726e+02=T 90.00000=T Traj:=T positionsangstrom=T Step:=T 0=T Bead:=T pbc="F F F"
C      -45.99420000     -37.10080000     -71.33750000
C      -45.17720000     -36.67070000     -70.28090000
C      -43.94300000     -36.12020000     -70.55900000
C      -43.40640000     -36.07460000     -71.83360000
C      -44.19000000     -36.54240000     -72.90510000
C      -45.49640000     -37.04830000     -72.62440000
H      -46.95040000     -37.65950000     -71.18560000
H      -43.40870000     -35.62570000     -69.78290000
H      -43.79970000     -36.59560000     -73.93370000
H      -46.06170000     -37.48700000     -73.38190000
C      -42.05990000     -35.46610000     -72.15940000
H      -42.16090000     -35.05680000     -73.18240000
H      -41.25350000     -36.16790000     -72.22470000
C      -45.70590000     -36.79930000     -68.83680000
H      -46.56470000     -37.41390000     -68.67400000
H      -44.91860000     -37.21740000     -68.13880000
S      -41.62040000     -34.05490000     -71.12300000
S      -45.97840000     -35.03380000     -68.26380000
C      -42.69200000     -32.83050000     -72.03240000
H      -42.06340000     -32.08210000     -72.50220000
H      -43.21610000     -33.29730000     -72.81230000
C      -46.70630000     -34.18680000     -69.73670000
H      -47.77280000     -34.56520000     -69.90850000
H      -46.14390000     -34.43590000     -70.60350000
C      -46.78330000     -32.70610000     -69.45550000
H      -47.45780000     -32.57650000     -68.70250000
H      -45.83560000     -32.25990000     -69.01220000
C      -43.70680000     -32.19670000     -71.10210000
H      -43.29580000     -31.33380000     -70.50240000
H      -44.16850000     -32.90900000     -70.51820000
C      -44.80900000     -31.41860000     -71.86980000
C      -44.52270000     -30.53680000     -72.92040000
C      -46.28840000     -31.40000000     -71.66330000
H      -43.53730000     -30.49450000     -73.38020000
C      -46.88660000     -30.48200000     -72.51800000
C      -47.17670000     -31.95010000     -70.68590000
C      -48.46910000     -31.49670000     -70.94300000
S      -45.84190000     -29.73880000     -73.69690000
S      -48.59560000     -30.32640000     -72.22480000
H      -49.28100000     -31.77700000     -70.37290000
