40
Properties=species:S:1:pos:R:3 #=T CELL(abcABC):=T 1.889726e+02=T 90.00000=T Traj:=T positionsangstrom=T Step:=T 0=T Bead:=T pbc="F F F"
C      -45.83680000     -35.16460000     -74.72220000
C      -44.54780000     -34.86710000     -74.29140000
C      -44.11520000     -35.57510000     -73.13790000
C      -44.94880000     -36.50250000     -72.46200000
C      -46.20820000     -36.81900000     -72.99640000
C      -46.64210000     -36.07520000     -74.06910000
H      -46.19220000     -34.54670000     -75.55270000
H      -43.20310000     -35.21890000     -72.63670000
H      -46.82520000     -37.68100000     -72.62500000
H      -47.62220000     -36.32160000     -74.51290000
C      -44.35230000     -37.40330000     -71.28370000
H      -43.57010000     -38.04940000     -71.68400000
H      -45.20470000     -37.98580000     -70.85190000
C      -43.68840000     -33.82830000     -74.91480000
H      -42.85190000     -34.05280000     -75.53360000
H      -44.26230000     -33.18530000     -75.60220000
S      -43.48780000     -36.42050000     -69.92930000
S      -43.00000000     -32.72960000     -73.71960000
C      -44.48760000     -35.10630000     -69.29440000
H      -45.45660000     -35.43350000     -68.89510000
H      -43.91120000     -34.69280000     -68.46810000
C      -44.37420000     -31.99280000     -72.76700000
H      -44.86750000     -32.88480000     -72.40010000
H      -45.07270000     -31.47700000     -73.49590000
C      -44.07270000     -30.91980000     -71.72830000
H      -43.24870000     -31.10870000     -71.00260000
H      -43.83260000     -29.93840000     -72.11880000
C      -44.71180000     -33.89320000     -70.24610000
H      -44.87340000     -34.35080000     -71.19530000
H      -43.75700000     -33.37950000     -70.31950000
C      -45.88380000     -33.07630000     -69.72530000
C      -46.94010000     -33.48510000     -69.03160000
C      -46.06150000     -31.64390000     -70.03830000
H      -47.12240000     -34.46170000     -68.54060000
C      -47.12640000     -31.02120000     -69.41540000
C      -45.26780000     -30.69250000     -70.82040000
C      -45.75460000     -29.42540000     -70.58340000
S      -48.03830000     -32.14740000     -68.52540000
S      -47.15100000     -29.35870000     -69.55700000
H      -45.44790000     -28.51410000     -71.09750000
