40
Properties=species:S:1:pos:R:3 #=T CELL(abcABC):=T 1.889726e+02=T 90.00000=T Traj:=T positionsangstrom=T Step:=T 0=T Bead:=T pbc="F F F"
C      -41.83270000     -31.49640000     -72.25120000
C      -42.51200000     -32.24770000     -73.24470000
C      -42.60070000     -33.62620000     -73.11600000
C      -42.23180000     -34.29180000     -71.90800000
C      -41.64740000     -33.55950000     -70.84990000
C      -41.36580000     -32.21850000     -71.11990000
H      -41.84140000     -30.38120000     -72.27700000
H      -43.13300000     -34.17720000     -73.90570000
H      -41.13990000     -34.01790000     -70.05270000
H      -40.95870000     -31.62900000     -70.28820000
C      -42.48300000     -35.83920000     -71.96920000
H      -41.51260000     -36.37970000     -72.13350000
H      -43.12870000     -35.97520000     -72.92770000
C      -43.00260000     -31.48180000     -74.47310000
H      -42.82600000     -30.42430000     -74.45630000
H      -42.61360000     -31.85430000     -75.43080000
S      -43.28560000     -36.71120000     -70.58760000
S      -44.86490000     -31.71760000     -74.69460000
C      -44.61710000     -35.58020000     -70.07460000
H      -44.77890000     -35.83050000     -68.97530000
H      -44.33740000     -34.51660000     -70.16770000
C      -45.61290000     -31.26030000     -73.07720000
H      -46.69680000     -30.96970000     -73.31070000
H      -45.16240000     -30.29070000     -72.72470000
C      -45.64150000     -32.33850000     -72.01150000
H      -45.72160000     -33.33390000     -72.52120000
H      -44.67320000     -32.33950000     -71.56760000
C      -45.92430000     -35.65670000     -70.89160000
H      -46.36750000     -36.63180000     -71.05600000
H      -45.71060000     -35.30490000     -71.88280000
C      -47.10860000     -34.78160000     -70.39390000
C      -48.02380000     -35.43020000     -69.59920000
C      -47.27350000     -33.34980000     -70.37350000
H      -47.87820000     -36.52970000     -69.47990000
C      -48.34770000     -32.99440000     -69.56300000
C      -46.69280000     -32.19970000     -70.98770000
C      -47.35580000     -31.04300000     -70.64650000
S      -49.16040000     -34.38060000     -68.86330000
S      -48.75680000     -31.27790000     -69.52460000
H      -47.21670000     -30.01740000     -70.99850000
