40
Properties=species:S:1:pos:R:3 #=T CELL(abcABC):=T 1.889726e+02=T 90.00000=T Traj:=T positionsangstrom=T Step:=T 0=T Bead:=T pbc="F F F"
C      -47.12680000     -35.04700000     -68.02590000
C      -46.21430000     -35.64260000     -68.87620000
C      -46.65280000     -35.73030000     -70.27350000
C      -47.81550000     -35.17150000     -70.75480000
C      -48.61870000     -34.50590000     -69.86300000
C      -48.31910000     -34.49050000     -68.52700000
H      -46.80870000     -34.89770000     -66.94880000
H      -46.10060000     -36.43640000     -70.93300000
H      -49.55910000     -33.97480000     -70.19850000
H      -48.99080000     -34.02350000     -67.79040000
C      -48.23990000     -35.30310000     -72.17870000
H      -48.99710000     -35.96130000     -72.14430000
H      -47.43720000     -35.79150000     -72.76600000
C      -44.89550000     -36.28360000     -68.40640000
H      -44.32750000     -35.51630000     -67.81220000
H      -45.13850000     -37.12570000     -67.72400000
S      -48.78390000     -33.77680000     -73.04030000
S      -43.78020000     -36.72490000     -69.88510000
C      -47.23690000     -32.72120000     -73.19000000
H      -46.42840000     -33.21430000     -73.80350000
H      -47.55850000     -31.79790000     -73.73140000
C      -43.21040000     -35.04970000     -70.34350000
H      -42.03930000     -35.04890000     -70.30670000
H      -43.43070000     -34.42550000     -69.42080000
C      -43.81790000     -34.46480000     -71.61660000
H      -43.74230000     -35.05670000     -72.52880000
H      -44.91540000     -34.41820000     -71.43490000
C      -46.65380000     -32.40670000     -71.79130000
H      -46.39170000     -33.35410000     -71.33690000
H      -47.35440000     -31.94870000     -71.12670000
C      -45.47220000     -31.48820000     -71.95660000
C      -45.64320000     -30.12910000     -72.13360000
C      -44.02830000     -31.86420000     -72.09900000
H      -46.57970000     -29.67800000     -72.32820000
C      -43.25870000     -30.70670000     -72.34600000
C      -43.25820000     -33.08510000     -71.89560000
C      -41.91750000     -32.79050000     -72.17430000
S      -44.17140000     -29.21680000     -72.60180000
S      -41.57230000     -31.07920000     -72.54550000
H      -41.01770000     -33.39500000     -72.09940000
