40
Properties=species:S:1:pos:R:3 #=T CELL(abcABC):=T 1.889726e+02=T 90.00000=T Traj:=T positionsangstrom=T Step:=T 0=T Bead:=T pbc="F F F"
C      -45.99320000     -36.41810000     -71.69970000
C      -45.31370000     -36.39290000     -70.45230000
C      -43.96760000     -36.04290000     -70.45510000
C      -43.22400000     -35.82620000     -71.59750000
C      -43.91820000     -35.88380000     -72.88390000
C      -45.26880000     -36.08920000     -72.83790000
H      -47.02840000     -36.65480000     -71.79020000
H      -43.40410000     -36.08000000     -69.57110000
H      -43.42430000     -35.53480000     -73.73400000
H      -45.72400000     -36.09310000     -73.89830000
C      -41.74220000     -35.71190000     -71.65790000
H      -41.24820000     -35.87280000     -72.60630000
H      -41.20400000     -36.30670000     -70.89350000
C      -45.96080000     -36.66390000     -69.16990000
H      -46.83310000     -37.33330000     -69.32170000
H      -45.25140000     -37.29330000     -68.52730000
S      -41.27960000     -33.97000000     -71.04930000
S      -46.70340000     -35.19050000     -68.20780000
C      -42.49780000     -32.98310000     -71.96420000
H      -41.77730000     -32.13980000     -72.34560000
H      -42.75350000     -33.50590000     -72.87630000
C      -46.96050000     -33.85330000     -69.52560000
H      -48.03360000     -33.86130000     -69.92920000
H      -46.31600000     -34.21500000     -70.28250000
C      -46.63040000     -32.38510000     -69.13130000
H      -47.20260000     -32.10770000     -68.26470000
H      -45.61280000     -32.26080000     -68.83960000
C      -43.74190000     -32.40860000     -71.22130000
H      -43.20970000     -31.75040000     -70.55330000
H      -44.11970000     -33.13870000     -70.46500000
C      -44.83290000     -31.79280000     -71.98550000
C      -44.60020000     -31.42120000     -73.31120000
C      -46.14080000     -31.38100000     -71.54330000
H      -43.67180000     -31.60920000     -73.78880000
C      -46.91040000     -30.88960000     -72.61100000
C      -47.04710000     -31.49960000     -70.33400000
C      -48.31110000     -31.00770000     -70.54730000
S      -45.97500000     -30.68530000     -74.12560000
S      -48.49780000     -30.27680000     -72.16690000
H      -49.07180000     -30.68620000     -69.83680000
