40
Properties=species:S:1:pos:R:3 #=T CELL(abcABC):=T 1.889726e+02=T 90.00000=T Traj:=T positionsangstrom=T Step:=T 0=T Bead:=T pbc="F F F"
C      -44.76580000     -31.47240000     -74.76250000
C      -45.04550000     -30.89360000     -73.54440000
C      -43.98020000     -30.82820000     -72.56040000
C      -42.85330000     -31.59030000     -72.74160000
C      -42.59770000     -32.19860000     -74.02050000
C      -43.51750000     -32.05890000     -75.06690000
H      -45.62760000     -31.73340000     -75.47820000
H      -44.18310000     -30.32300000     -71.64040000
H      -41.59490000     -32.64090000     -74.19210000
H      -43.33960000     -32.68480000     -75.97500000
C      -41.82360000     -31.62310000     -71.66980000
H      -42.01480000     -30.98370000     -70.82620000
H      -40.85480000     -31.31470000     -71.96410000
C      -46.35410000     -30.33210000     -73.13750000
H      -46.10020000     -29.51160000     -72.47880000
H      -47.00610000     -30.04610000     -74.00360000
S      -41.44700000     -33.35290000     -71.00160000
S      -47.33140000     -31.66590000     -72.21120000
C      -43.11910000     -34.06120000     -70.76000000
H      -43.52050000     -34.59580000     -71.59250000
H      -42.92310000     -34.83250000     -70.01930000
C      -47.21220000     -33.16780000     -73.23170000
H      -46.74710000     -32.78830000     -74.19080000
H      -48.17270000     -33.60020000     -73.54950000
C      -46.28880000     -34.29610000     -72.74780000
H      -46.20100000     -35.08730000     -73.48220000
H      -45.32720000     -33.90060000     -72.52130000
C      -44.13960000     -33.06820000     -70.22570000
H      -44.57610000     -32.47940000     -71.05590000
H      -43.66830000     -32.35160000     -69.56260000
C      -45.21330000     -33.83050000     -69.46500000
C      -45.29090000     -33.91270000     -68.09390000
C      -46.34210000     -34.58030000     -70.10590000
H      -44.60680000     -33.56140000     -67.40560000
C      -47.00490000     -35.39360000     -69.17510000
C      -46.83780000     -34.84140000     -71.45870000
C      -47.92320000     -35.70690000     -71.39370000
S      -46.38270000     -35.19370000     -67.56540000
S      -48.35920000     -36.33210000     -69.78580000
H      -48.35350000     -36.00290000     -72.34630000
