40
Properties=species:S:1:pos:R:3 #=T CELL(abcABC):=T 1.889726e+02=T 90.00000=T Traj:=T positionsangstrom=T Step:=T 0=T Bead:=T pbc="F F F"
C      -44.70220000     -31.70720000     -74.88450000
C      -44.96570000     -31.20330000     -73.58830000
C      -43.94090000     -30.96030000     -72.72220000
C      -42.67030000     -31.55970000     -72.87830000
C      -42.40690000     -31.98260000     -74.17430000
C      -43.41130000     -32.06290000     -75.19160000
H      -45.55820000     -31.82150000     -75.59870000
H      -44.14950000     -30.55170000     -71.72320000
H      -41.57490000     -32.60730000     -74.18390000
H      -43.17360000     -32.37740000     -76.22300000
C      -41.60450000     -31.57190000     -71.82830000
H      -41.89730000     -30.79620000     -71.04420000
H      -40.68310000     -31.29950000     -72.24880000
C      -46.32950000     -30.60560000     -73.34020000
H      -46.33940000     -29.77530000     -72.67600000
H      -46.89600000     -30.38160000     -74.31400000
S      -41.43710000     -33.15850000     -70.88540000
S      -47.39980000     -31.74640000     -72.37650000
C      -43.10270000     -33.84680000     -70.74310000
H      -43.51220000     -34.13200000     -71.68720000
H      -42.96360000     -34.74660000     -70.15450000
C      -47.32520000     -33.24270000     -73.36750000
H      -46.91400000     -32.94610000     -74.36460000
H      -48.33580000     -33.57240000     -73.48400000
C      -46.37440000     -34.23250000     -72.69080000
H      -46.27330000     -35.11720000     -73.42180000
H      -45.42190000     -33.85750000     -72.62520000
C      -44.19650000     -32.97610000     -70.01960000
H      -44.62170000     -32.29460000     -70.76040000
H      -43.70010000     -32.48530000     -69.20650000
C      -45.29160000     -33.83900000     -69.31970000
C      -45.15260000     -34.13380000     -68.01950000
C      -46.38840000     -34.54010000     -69.98990000
H      -44.35300000     -33.72320000     -67.35610000
C      -47.12850000     -35.25990000     -69.06850000
C      -46.79610000     -34.86820000     -71.34140000
C      -47.79490000     -35.86550000     -71.34010000
S      -46.52710000     -35.18190000     -67.40210000
S      -48.43270000     -36.22950000     -69.73730000
H      -48.32010000     -36.04280000     -72.26230000
