40
Properties=species:S:1:pos:R:3 #=T CELL(abcABC):=T 1.889726e+02=T 90.00000=T Traj:=T positionsangstrom=T Step:=T 0=T Bead:=T pbc="F F F"
C      -45.47350000     -35.51970000     -73.28520000
C      -46.53630000     -35.51960000     -72.38160000
C      -47.37600000     -34.44890000     -72.26700000
C      -47.12690000     -33.36480000     -73.19970000
C      -46.09560000     -33.47990000     -74.14880000
C      -45.30940000     -34.59520000     -74.24230000
H      -44.72600000     -36.34690000     -73.10440000
H      -48.19400000     -34.40570000     -71.53810000
H      -45.93970000     -32.74340000     -74.90280000
H      -44.40460000     -34.69980000     -74.82360000
C      -47.93480000     -32.05730000     -73.08880000
H      -48.91370000     -32.14460000     -72.64770000
H      -48.12920000     -31.74990000     -74.14560000
C      -46.77350000     -36.70700000     -71.44390000
H      -47.46250000     -37.41110000     -71.94450000
H      -45.91110000     -37.37800000     -71.33440000
S      -47.09380000     -30.55380000     -72.33640000
S      -47.57870000     -36.34280000     -69.75090000
C      -46.91570000     -31.03440000     -70.51990000
H      -47.75460000     -30.57370000     -70.00590000
H      -47.06480000     -32.07620000     -70.45680000
C      -46.17070000     -35.63470000     -68.69330000
H      -45.27350000     -36.27360000     -68.78590000
H      -46.60610000     -35.72180000     -67.73760000
C      -45.76540000     -34.15330000     -68.97710000
H      -46.60990000     -33.47800000     -69.22970000
H      -45.67000000     -33.74180000     -68.00460000
C      -45.63210000     -30.61580000     -69.82720000
H      -45.70300000     -30.90090000     -68.74200000
H      -45.51380000     -29.49560000     -69.77010000
C      -44.41250000     -31.23680000     -70.44290000
C      -43.51990000     -30.35350000     -70.99520000
C      -43.98020000     -32.62280000     -70.33590000
H      -43.66980000     -29.24280000     -71.05270000
C      -42.82110000     -32.82160000     -71.06080000
C      -44.52560000     -33.94330000     -69.81930000
C      -43.60300000     -34.91100000     -70.10310000
S      -42.15010000     -31.27800000     -71.67860000
S      -42.24310000     -34.43760000     -71.05020000
H      -43.84050000     -35.96900000     -69.95470000
