40
Properties=species:S:1:pos:R:3 #=T CELL(abcABC):=T 1.889726e+02=T 90.00000=T Traj:=T positionsangstrom=T Step:=T 0=T Bead:=T pbc="F F F"
C      -44.71000000     -31.41180000     -74.73630000
C      -44.94130000     -30.82640000     -73.48750000
C      -44.01810000     -30.97430000     -72.48470000
C      -42.79570000     -31.59830000     -72.74630000
C      -42.54280000     -32.19600000     -73.98290000
C      -43.49170000     -31.99540000     -75.04900000
H      -45.37480000     -31.15570000     -75.59890000
H      -44.18830000     -30.57740000     -71.50700000
H      -41.63210000     -32.68560000     -74.15920000
H      -43.33320000     -32.33060000     -76.09010000
C      -41.75430000     -31.73430000     -71.61940000
H      -42.13980000     -31.08090000     -70.83950000
H      -40.78480000     -31.32560000     -71.98030000
C      -46.37080000     -30.29780000     -73.22180000
H      -46.29390000     -29.34810000     -72.68120000
H      -46.81500000     -30.04440000     -74.17460000
S      -41.50870000     -33.41220000     -71.05020000
S      -47.44480000     -31.59680000     -72.39460000
C      -43.17430000     -34.03940000     -70.99120000
H      -43.58590000     -34.23800000     -72.00460000
H      -43.08130000     -35.01850000     -70.48010000
C      -47.29470000     -33.16780000     -73.26310000
H      -47.03070000     -32.96180000     -74.31560000
H      -48.32430000     -33.57080000     -73.21670000
C      -46.34700000     -34.23530000     -72.64410000
H      -46.25560000     -35.03290000     -73.43430000
H      -45.38440000     -33.85400000     -72.63460000
C      -44.15500000     -33.12760000     -70.26620000
H      -44.79110000     -32.50860000     -70.94350000
H      -43.70500000     -32.31120000     -69.66380000
C      -45.17020000     -33.93340000     -69.45790000
C      -45.10880000     -34.03280000     -68.13140000
C      -46.29270000     -34.63040000     -70.05870000
H      -44.37790000     -33.71290000     -67.42190000
C      -46.97210000     -35.34640000     -69.08910000
C      -46.83310000     -34.84420000     -71.34820000
C      -47.96970000     -35.67460000     -71.34040000
S      -46.35350000     -35.14660000     -67.46070000
S      -48.32670000     -36.32750000     -69.71640000
H      -48.48540000     -36.12940000     -72.19580000
