40
Properties=species:S:1:pos:R:3 #=T CELL(abcABC):=T 1.889726e+02=T 90.00000=T Traj:=T positionsangstrom=T Step:=T 0=T Bead:=T pbc="F F F"
C      -44.80760000     -31.61230000     -74.91160000
C      -45.06850000     -30.99520000     -73.63610000
C      -44.06770000     -30.88190000     -72.66300000
C      -42.75850000     -31.39700000     -72.95360000
C      -42.56030000     -31.94530000     -74.21980000
C      -43.57810000     -32.16160000     -75.17860000
H      -45.65800000     -31.79630000     -75.46830000
H      -44.41900000     -30.47140000     -71.69810000
H      -41.56460000     -32.44440000     -74.37980000
H      -43.36280000     -32.89960000     -75.89730000
C      -41.77870000     -31.33190000     -71.80240000
H      -42.25720000     -30.74860000     -71.06400000
H      -40.81260000     -30.86450000     -72.10750000
C      -46.39490000     -30.45550000     -73.35390000
H      -46.31460000     -29.42170000     -72.96300000
H      -47.01380000     -30.28540000     -74.20530000
S      -41.34520000     -33.03150000     -70.99740000
S      -47.15380000     -31.60880000     -72.00250000
C      -42.97540000     -33.96550000     -70.79300000
H      -43.37470000     -34.22060000     -71.76860000
H      -42.77840000     -34.90340000     -70.32600000
C      -47.21440000     -33.25720000     -72.99430000
H      -47.15550000     -32.90750000     -74.04380000
H      -48.27110000     -33.72840000     -72.86840000
C      -46.21190000     -34.33250000     -72.60610000
H      -46.06630000     -34.96860000     -73.40940000
H      -45.11470000     -34.10160000     -72.39430000
C      -44.07070000     -33.21890000     -70.00900000
H      -44.48010000     -32.36720000     -70.59220000
H      -43.55500000     -32.65510000     -69.17130000
C      -45.25150000     -34.03240000     -69.36630000
C      -45.37870000     -34.15150000     -68.00220000
C      -46.23260000     -34.90430000     -70.04410000
H      -44.74840000     -33.55190000     -67.35220000
C      -47.11600000     -35.44050000     -69.13810000
C      -46.71050000     -35.06610000     -71.41150000
C      -47.89480000     -35.82910000     -71.48520000
S      -46.70160000     -35.09060000     -67.52450000
S      -48.39650000     -36.39390000     -69.89110000
H      -48.26750000     -36.08050000     -72.44260000
