40
Properties=species:S:1:pos:R:3 #=T CELL(abcABC):=T 1.889726e+02=T 90.00000=T Traj:=T positionsangstrom=T Step:=T 0=T Bead:=T pbc="F F F"
C      -45.50850000     -35.23630000     -72.91580000
C      -46.47110000     -35.34490000     -71.83320000
C      -47.48380000     -34.44580000     -71.74500000
C      -47.53930000     -33.31240000     -72.58120000
C      -46.59360000     -33.18570000     -73.62660000
C      -45.52580000     -34.15940000     -73.78430000
H      -44.76190000     -36.00740000     -73.01220000
H      -48.26140000     -34.65190000     -70.94320000
H      -46.55240000     -32.37930000     -74.34270000
H      -44.82600000     -33.99550000     -74.64690000
C      -48.53530000     -32.20010000     -72.48380000
H      -49.39810000     -32.50690000     -71.85840000
H      -48.94810000     -31.93460000     -73.46960000
C      -46.28580000     -36.52100000     -70.89960000
H      -46.86030000     -37.38050000     -71.41920000
H      -45.23950000     -36.81930000     -70.87290000
S      -47.65310000     -30.71250000     -71.85480000
S      -46.78000000     -36.20980000     -69.09760000
C      -46.97030000     -31.36450000     -70.27730000
H      -47.55230000     -30.82570000     -69.49140000
H      -47.07260000     -32.40550000     -70.29990000
C      -45.36060000     -35.37020000     -68.23560000
H      -44.47040000     -36.05990000     -68.25790000
H      -45.52000000     -35.30750000     -67.19560000
C      -44.93600000     -33.96630000     -68.78710000
H      -45.80180000     -33.33670000     -68.96740000
H      -44.43700000     -33.37410000     -68.02260000
C      -45.54860000     -30.87130000     -69.96020000
H      -45.26580000     -31.29030000     -68.92970000
H      -45.52660000     -29.78540000     -69.92170000
C      -44.44540000     -31.37990000     -70.85640000
C      -43.89580000     -30.62090000     -71.85000000
C      -43.84570000     -32.67960000     -70.80060000
H      -44.14240000     -29.61440000     -71.95240000
C      -42.99060000     -32.89290000     -71.82860000
C      -44.03890000     -33.85690000     -70.00020000
C      -43.31730000     -34.91890000     -70.47050000
S      -42.68400000     -31.47090000     -72.77220000
S      -42.31090000     -34.50210000     -71.94370000
H      -43.32830000     -35.91770000     -70.05920000
