40
Properties=species:S:1:pos:R:3 #=T CELL(abcABC):=T 1.889726e+02=T 90.00000=T Traj:=T positionsangstrom=T Step:=T 0=T Bead:=T pbc="F F F"
C      -45.54270000     -35.21770000     -73.20400000
C      -46.40890000     -35.23620000     -72.13000000
C      -47.36710000     -34.19790000     -71.92610000
C      -47.48430000     -33.20010000     -72.95490000
C      -46.57400000     -33.22500000     -73.99870000
C      -45.62530000     -34.21790000     -74.13400000
H      -44.76720000     -35.93530000     -73.09480000
H      -48.05450000     -34.15410000     -71.12010000
H      -46.64070000     -32.38400000     -74.62990000
H      -44.89870000     -34.13450000     -74.90460000
C      -48.46420000     -32.07540000     -72.67830000
H      -49.31240000     -32.42370000     -72.11500000
H      -48.85400000     -31.57760000     -73.56150000
C      -46.37800000     -36.31680000     -71.06500000
H      -47.13930000     -37.07020000     -71.25470000
H      -45.36150000     -36.81330000     -70.94540000
S      -47.83350000     -30.68180000     -71.61750000
S      -46.99990000     -35.71900000     -69.38730000
C      -47.05530000     -31.37980000     -70.07830000
H      -47.56550000     -30.95620000     -69.23520000
H      -47.17350000     -32.49700000     -70.02850000
C      -45.46980000     -35.58130000     -68.44440000
H      -44.72580000     -36.30380000     -68.63170000
H      -45.76730000     -35.65620000     -67.37070000
C      -44.86150000     -34.14790000     -68.52780000
H      -45.73720000     -33.50010000     -68.43560000
H      -44.11350000     -34.03050000     -67.71340000
C      -45.53750000     -30.91880000     -70.03010000
H      -45.15730000     -31.00110000     -68.97890000
H      -45.47210000     -29.82050000     -70.02180000
C      -44.52100000     -31.59260000     -70.91640000
C      -44.00980000     -30.89180000     -71.99280000
C      -43.89900000     -32.83290000     -70.66950000
H      -44.45430000     -29.96740000     -72.42960000
C      -42.90660000     -33.09600000     -71.64320000
C      -43.96720000     -33.92960000     -69.76000000
C      -42.93630000     -34.83800000     -69.99930000
S      -42.65230000     -31.73130000     -72.74720000
S      -42.04650000     -34.53840000     -71.45470000
H      -42.83950000     -35.74010000     -69.37510000
