40
Properties=species:S:1:pos:R:3 #=T CELL(abcABC):=T 1.889726e+02=T 90.00000=T Traj:=T positionsangstrom=T Step:=T 0=T Bead:=T pbc="F F F"
C      -41.89130000     -30.68060000     -71.51470000
C      -42.34230000     -31.62200000     -72.42940000
C      -42.42450000     -32.96180000     -72.08040000
C      -42.06190000     -33.39960000     -70.79810000
C      -41.53850000     -32.43640000     -69.93530000
C      -41.41090000     -31.08190000     -70.27130000
H      -41.74470000     -29.67630000     -71.92110000
H      -42.80370000     -33.78950000     -72.78210000
H      -41.18280000     -32.64050000     -68.94640000
H      -40.91550000     -30.38850000     -69.70730000
C      -42.13280000     -34.87140000     -70.31800000
H      -41.08590000     -35.23160000     -70.15880000
H      -42.43230000     -35.49160000     -71.18020000
C      -42.58550000     -31.21260000     -73.85350000
H      -43.12550000     -30.21540000     -73.76370000
H      -41.68500000     -31.13710000     -74.46590000
S      -43.09310000     -35.34000000     -68.81170000
S      -43.91240000     -32.16640000     -74.85370000
C      -44.78370000     -34.75880000     -68.96320000
H      -45.27090000     -35.06490000     -68.01560000
H      -44.84730000     -33.65960000     -69.02760000
C      -45.41780000     -31.97810000     -73.83570000
H      -46.26640000     -31.76260000     -74.55310000
H      -45.23770000     -31.03910000     -73.25490000
C      -45.73290000     -33.12660000     -72.85260000
H      -45.62800000     -34.11710000     -73.30740000
H      -44.95580000     -33.05650000     -72.10010000
C      -45.44710000     -35.36930000     -70.17820000
H      -45.40040000     -36.47480000     -70.22990000
H      -44.90330000     -35.02660000     -71.08340000
C      -46.91180000     -34.91270000     -70.15440000
C      -47.82430000     -35.38850000     -69.23440000
C      -47.52190000     -34.03980000     -71.12050000
H      -47.57070000     -36.15710000     -68.45180000
C      -48.88840000     -33.81940000     -70.82910000
C      -47.08960000     -33.21000000     -72.32530000
C      -48.17800000     -32.55580000     -72.84160000
S      -49.49210000     -34.78460000     -69.46040000
S      -49.68120000     -32.65610000     -71.91220000
H      -48.18440000     -31.80460000     -73.61760000
