40
Properties=species:S:1:pos:R:3 #=T CELL(abcABC):=T 1.889726e+02=T 90.00000=T Traj:=T positionsangstrom=T Step:=T 0=T Bead:=T pbc="F F F"
C      -45.72120000     -35.21540000     -73.31150000
C      -46.59050000     -35.24560000     -72.23060000
C      -47.60870000     -34.23860000     -72.10680000
C      -47.53920000     -33.05570000     -72.98320000
C      -46.48840000     -33.02040000     -73.87560000
C      -45.62770000     -34.07730000     -74.13980000
H      -45.12270000     -36.06660000     -73.64840000
H      -48.45270000     -34.29660000     -71.42710000
H      -46.38460000     -32.08430000     -74.38140000
H      -44.99670000     -34.02800000     -75.02480000
C      -48.46300000     -31.94630000     -72.74620000
H      -49.46630000     -32.21740000     -72.37910000
H      -48.73220000     -31.43700000     -73.68970000
C      -46.46160000     -36.27580000     -71.18950000
H      -47.13060000     -37.12800000     -71.51220000
H      -45.51570000     -36.72480000     -71.28110000
S      -47.77410000     -30.54800000     -71.69060000
S      -47.00380000     -35.76530000     -69.49460000
C      -47.07530000     -31.42860000     -70.26740000
H      -47.67680000     -31.23540000     -69.39490000
H      -47.09880000     -32.54690000     -70.47780000
C      -45.50540000     -35.50150000     -68.38510000
H      -44.89880000     -36.39500000     -68.52780000
H      -46.05260000     -35.63250000     -67.42060000
C      -44.79550000     -34.12830000     -68.47610000
H      -45.55390000     -33.40090000     -68.39480000
H      -44.17790000     -33.93690000     -67.57790000
C      -45.56370000     -31.11140000     -69.88220000
H      -45.41690000     -31.50960000     -68.82630000
H      -45.39060000     -30.03130000     -69.81710000
C      -44.44770000     -31.63770000     -70.77070000
C      -44.11740000     -31.01460000     -71.95370000
C      -43.74400000     -32.87850000     -70.57510000
H      -44.63880000     -30.18570000     -72.41270000
C      -42.79910000     -33.13950000     -71.56460000
C      -43.85700000     -34.04120000     -69.68440000
C      -42.84760000     -34.95270000     -69.89810000
S      -42.78970000     -31.80200000     -72.77000000
S      -41.83010000     -34.52700000     -71.24290000
H      -42.69250000     -35.85290000     -69.26370000
