40
Properties=species:S:1:pos:R:3 #=T CELL(abcABC):=T 1.889726e+02=T 90.00000=T Traj:=T positionsangstrom=T Step:=T 0=T Bead:=T pbc="F F F"
C      -41.90390000     -30.77950000     -71.46540000
C      -42.39300000     -31.72600000     -72.38540000
C      -42.59160000     -33.04000000     -72.00670000
C      -42.24720000     -33.45360000     -70.70280000
C      -41.85630000     -32.46250000     -69.79460000
C      -41.79100000     -31.11850000     -70.11010000
H      -41.91750000     -29.72450000     -71.65120000
H      -42.86100000     -33.78180000     -72.79640000
H      -41.67600000     -32.86000000     -68.77460000
H      -41.60110000     -30.42750000     -69.34080000
C      -42.22410000     -34.95300000     -70.49220000
H      -41.21520000     -35.37530000     -70.61560000
H      -42.80660000     -35.52640000     -71.22650000
C      -42.62810000     -31.30240000     -73.75430000
H      -42.63960000     -30.21040000     -73.86650000
H      -41.69890000     -31.52030000     -74.28610000
S      -42.89600000     -35.35580000     -68.79560000
S      -43.82400000     -32.19090000     -74.78120000
C      -44.65990000     -34.75050000     -68.95290000
H      -45.10780000     -35.03020000     -68.03650000
H      -44.69500000     -33.59720000     -68.93630000
C      -45.60400000     -32.08560000     -74.09480000
H      -46.30870000     -32.43000000     -74.83740000
H      -45.92300000     -31.10130000     -73.82940000
C      -45.74090000     -33.03300000     -72.89320000
H      -45.55800000     -34.06130000     -73.22620000
H      -44.97330000     -32.97440000     -72.08280000
C      -45.31250000     -35.25680000     -70.22860000
H      -45.13990000     -36.28960000     -70.33430000
H      -44.81010000     -34.81530000     -71.13570000
C      -46.85700000     -34.86630000     -70.30090000
C      -47.73340000     -35.41180000     -69.36860000
C      -47.52240000     -33.95510000     -71.21980000
H      -47.52360000     -36.11990000     -68.53390000
C      -48.88200000     -33.79570000     -70.82520000
C      -47.08660000     -33.05200000     -72.29750000
C      -48.14300000     -32.28440000     -72.72590000
S      -49.34010000     -34.76510000     -69.52380000
S      -49.69940000     -32.65080000     -71.89310000
H      -48.28430000     -31.56070000     -73.48010000
