40
Properties=species:S:1:pos:R:3 #=T CELL(abcABC):=T 1.889726e+02=T 90.00000=T Traj:=T positionsangstrom=T Step:=T 0=T Bead:=T pbc="F F F"
C      -42.70650000     -30.85340000     -71.15130000
C      -42.59710000     -31.78480000     -72.21490000
C      -42.28570000     -33.13290000     -71.99470000
C      -42.05020000     -33.58620000     -70.68080000
C      -42.01540000     -32.62370000     -69.66720000
C      -42.34740000     -31.26450000     -69.86820000
H      -43.09140000     -29.84670000     -71.30680000
H      -42.21540000     -33.82860000     -72.83260000
H      -41.79530000     -32.97170000     -68.65350000
H      -42.28930000     -30.54420000     -69.03160000
C      -41.70670000     -34.96800000     -70.43230000
H      -40.63790000     -35.17760000     -70.07960000
H      -41.80220000     -35.62370000     -71.29670000
C      -42.60660000     -31.45020000     -73.67550000
H      -42.75230000     -30.39440000     -73.84580000
H      -41.67290000     -31.80260000     -74.11980000
S      -42.90920000     -35.58310000     -68.94020000
S      -43.77450000     -32.38820000     -74.84400000
C      -44.54120000     -34.70430000     -69.15720000
H      -45.07880000     -34.63230000     -68.17280000
H      -44.20690000     -33.69300000     -69.31140000
C      -45.54070000     -32.38910000     -74.25630000
H      -46.04740000     -33.11030000     -74.89450000
H      -46.09340000     -31.46620000     -74.43790000
C      -45.61970000     -32.75730000     -72.76220000
H      -44.90900000     -33.56310000     -72.52080000
H      -45.23070000     -31.86930000     -72.25570000
C      -45.39880000     -35.16040000     -70.36110000
H      -45.38480000     -36.29650000     -70.45040000
H      -44.90170000     -34.76780000     -71.22710000
C      -46.91370000     -34.80660000     -70.36530000
C      -47.81880000     -35.34240000     -69.46590000
C      -47.49900000     -33.75100000     -71.21150000
H      -47.47160000     -35.97780000     -68.68570000
C      -48.82780000     -33.56390000     -70.85500000
C      -47.00980000     -32.92880000     -72.20790000
C      -48.05440000     -32.10930000     -72.69420000
S      -49.37710000     -34.65540000     -69.63250000
S      -49.60200000     -32.40640000     -71.81340000
H      -47.91260000     -31.38940000     -73.46210000
