40
Properties=species:S:1:pos:R:3 #=T CELL(abcABC):=T 1.889726e+02=T 90.00000=T Traj:=T positionsangstrom=T Step:=T 0=T Bead:=T pbc="F F F"
C      -42.84060000     -30.67440000     -71.33230000
C      -42.23570000     -31.73810000     -72.06000000
C      -41.88360000     -32.95720000     -71.44440000
C      -42.25460000     -33.19440000     -70.11070000
C      -42.81520000     -32.15810000     -69.38170000
C      -43.13460000     -30.90270000     -69.99980000
H      -43.22300000     -29.90650000     -71.92310000
H      -41.41170000     -33.76510000     -71.98910000
H      -43.01200000     -32.11840000     -68.29960000
H      -43.70670000     -30.14860000     -69.42380000
C      -42.01340000     -34.51610000     -69.36020000
H      -42.07650000     -34.38410000     -68.20440000
H      -41.04890000     -34.95160000     -69.60440000
C      -42.18760000     -31.42910000     -73.53430000
H      -42.36730000     -30.37860000     -73.68900000
H      -41.17430000     -31.63510000     -73.91720000
S      -43.06590000     -35.89310000     -69.90350000
S      -43.29380000     -32.54870000     -74.40340000
C      -44.72450000     -35.02550000     -69.77530000
H      -44.96270000     -34.86210000     -68.72150000
H      -44.45710000     -34.07710000     -70.25400000
C      -45.04440000     -32.22790000     -73.83620000
H      -45.74820000     -32.41180000     -74.64830000
H      -45.08780000     -31.13550000     -73.58440000
C      -45.45130000     -33.18220000     -72.69110000
H      -45.25980000     -34.25330000     -72.86030000
H      -44.70920000     -32.95410000     -71.91430000
C      -45.80830000     -35.76710000     -70.61910000
H      -45.96230000     -36.72290000     -70.16750000
H      -45.39430000     -36.03100000     -71.63180000
C      -47.19510000     -35.18690000     -70.66560000
C      -48.21420000     -35.68610000     -69.88420000
C      -47.50820000     -33.89570000     -71.29890000
H      -48.21720000     -36.65460000     -69.29840000
C      -48.83260000     -33.52610000     -71.00980000
C      -46.80220000     -32.95210000     -72.10730000
C      -47.60220000     -31.89760000     -72.40600000
S      -49.65460000     -34.67340000     -69.93000000
S      -49.21770000     -31.99910000     -71.66170000
H      -47.35980000     -31.07220000     -73.11080000
