40
Properties=species:S:1:pos:R:3 #=T CELL(abcABC):=T 1.889726e+02=T 90.00000=T Traj:=T positionsangstrom=T Step:=T 0=T Bead:=T pbc="F F F"
C      -43.03300000     -30.73070000     -71.27870000
C      -42.38630000     -31.81900000     -71.88780000
C      -42.12160000     -33.01170000     -71.20470000
C      -42.54980000     -33.03730000     -69.84890000
C      -43.16530000     -31.91980000     -69.26100000
C      -43.43570000     -30.71820000     -69.92700000
H      -43.23800000     -29.77270000     -71.84980000
H      -41.58190000     -33.83270000     -71.61240000
H      -43.49930000     -32.06390000     -68.28510000
H      -44.04460000     -29.88160000     -69.64270000
C      -42.40640000     -34.32430000     -69.03910000
H      -43.00650000     -34.35950000     -68.12980000
H      -41.31190000     -34.52760000     -68.66260000
C      -41.97720000     -31.71980000     -73.29090000
H      -41.77130000     -30.65710000     -73.55090000
H      -41.09230000     -32.29680000     -73.54510000
S      -42.95380000     -35.83510000     -70.03000000
S      -43.32130000     -32.27480000     -74.45090000
C      -44.76950000     -35.60930000     -69.74580000
H      -45.09260000     -36.14680000     -68.83110000
H      -45.01210000     -34.55520000     -69.58310000
C      -44.93680000     -31.96120000     -73.73390000
H      -45.67600000     -31.62060000     -74.51090000
H      -45.01630000     -31.11530000     -72.98430000
C      -45.41630000     -33.17240000     -72.91540000
H      -45.53820000     -34.07360000     -73.49230000
H      -44.64590000     -33.33810000     -72.18410000
C      -45.70170000     -36.01030000     -70.99540000
H      -45.98840000     -37.09220000     -71.05780000
H      -45.17830000     -35.61470000     -71.85780000
C      -47.01310000     -35.26560000     -70.80890000
C      -48.08650000     -35.79700000     -70.10990000
C      -47.33440000     -33.86040000     -71.29100000
H      -48.00670000     -36.75680000     -69.60480000
C      -48.64200000     -33.50760000     -70.86940000
C      -46.69250000     -32.88850000     -72.18760000
C      -47.55310000     -31.90900000     -72.49060000
S      -49.48430000     -34.77860000     -70.01580000
S      -49.16250000     -32.05260000     -71.65880000
H      -47.32970000     -31.16140000     -73.20400000
