40
Properties=species:S:1:pos:R:3 #=T CELL(abcABC):=T 1.889726e+02=T 90.00000=T Traj:=T positionsangstrom=T Step:=T 0=T Bead:=T pbc="F F F"
C      -43.13720000     -30.59890000     -70.17140000
C      -42.55340000     -31.51920000     -71.04730000
C      -42.24270000     -32.80390000     -70.55600000
C      -42.53160000     -33.18260000     -69.25260000
C      -43.02720000     -32.21750000     -68.37370000
C      -43.22730000     -30.90450000     -68.81140000
H      -43.28410000     -29.52070000     -70.48770000
H      -41.72280000     -33.52790000     -71.20450000
H      -43.18610000     -32.42770000     -67.30710000
H      -43.49080000     -30.08930000     -68.11340000
C      -42.29900000     -34.62850000     -68.77950000
H      -42.82210000     -34.91550000     -67.82220000
H      -41.25550000     -34.74660000     -68.54260000
C      -42.10950000     -31.16760000     -72.45160000
H      -41.91890000     -30.12460000     -72.57340000
H      -41.17000000     -31.75260000     -72.65260000
S      -42.88500000     -35.82570000     -70.08500000
S      -43.09290000     -31.55850000     -73.97220000
C      -44.72510000     -35.28340000     -70.21200000
H      -45.24290000     -35.61490000     -69.30210000
H      -44.73830000     -34.17830000     -70.28460000
C      -44.89120000     -31.53990000     -73.46860000
H      -45.49100000     -31.48360000     -74.35050000
H      -45.07260000     -30.81130000     -72.78600000
C      -45.22830000     -32.86540000     -72.73570000
H      -44.98280000     -33.82840000     -73.18790000
H      -44.69270000     -32.89400000     -71.74980000
C      -45.52870000     -35.87590000     -71.42960000
H      -45.58170000     -36.97800000     -71.27640000
H      -44.90110000     -35.78210000     -72.32360000
C      -46.94980000     -35.35660000     -71.37170000
C      -48.04650000     -36.14500000     -70.96610000
C      -47.40070000     -34.12220000     -71.96620000
H      -48.02750000     -37.07570000     -70.51570000
C      -48.83220000     -33.96680000     -71.74730000
C      -46.76680000     -32.92840000     -72.40490000
C      -47.74990000     -31.89900000     -72.63230000
S      -49.57980000     -35.31200000     -70.95920000
S      -49.41570000     -32.41130000     -72.24110000
H      -47.49810000     -30.88020000     -72.93420000
