40
Properties=species:S:1:pos:R:3 #=T CELL(abcABC):=T 1.889726e+02=T 90.00000=T Traj:=T positionsangstrom=T Step:=T 0=T Bead:=T pbc="F F F"
C      -43.37400000     -30.75900000     -70.99130000
C      -42.65760000     -31.70670000     -71.77200000
C      -42.24250000     -32.87620000     -71.12060000
C      -42.67390000     -33.16700000     -69.82280000
C      -43.49580000     -32.22700000     -69.10420000
C      -43.79750000     -30.98220000     -69.70970000
H      -43.50670000     -29.77920000     -71.53820000
H      -41.73290000     -33.65930000     -71.69150000
H      -43.73770000     -32.30010000     -68.05720000
H      -44.25160000     -30.18800000     -69.09980000
C      -42.13700000     -34.40270000     -69.16100000
H      -42.19450000     -34.34160000     -68.11390000
H      -41.09540000     -34.48590000     -69.36890000
C      -42.17390000     -31.45100000     -73.16910000
H      -42.11640000     -30.38640000     -73.36560000
H      -41.20330000     -31.90600000     -73.31370000
S      -42.91640000     -35.95270000     -69.77540000
S      -43.24890000     -32.06870000     -74.61020000
C      -44.69250000     -35.29900000     -69.83250000
H      -45.06480000     -35.35740000     -68.80670000
H      -44.59240000     -34.27170000     -70.19250000
C      -44.94100000     -32.04170000     -73.86950000
H      -45.66730000     -32.04670000     -74.67630000
H      -44.94490000     -31.05340000     -73.40730000
C      -45.29720000     -33.22470000     -72.92210000
H      -45.26450000     -34.24120000     -73.36160000
H      -44.66710000     -33.33080000     -72.04620000
C      -45.56790000     -35.95830000     -70.85460000
H      -45.79700000     -36.98010000     -70.60990000
H      -45.14980000     -35.83730000     -71.78930000
C      -46.91270000     -35.29830000     -70.85650000
C      -47.98720000     -35.75910000     -70.13070000
C      -47.28040000     -34.03230000     -71.44330000
H      -47.96390000     -36.66780000     -69.48940000
C      -48.58750000     -33.59390000     -71.09990000
C      -46.69510000     -33.05100000     -72.35260000
C      -47.51520000     -31.98030000     -72.62310000
S      -49.41830000     -34.64610000     -69.98510000
S      -49.05940000     -32.10010000     -71.81860000
H      -47.32700000     -31.01820000     -73.18820000
