40
Properties=species:S:1:pos:R:3 #=T CELL(abcABC):=T 1.889726e+02=T 90.00000=T Traj:=T positionsangstrom=T Step:=T 0=T Bead:=T pbc="F F F"
C      -43.53550000     -30.92060000     -71.01340000
C      -42.54760000     -31.65510000     -71.67460000
C      -42.01920000     -32.79270000     -71.11430000
C      -42.42230000     -33.13240000     -69.79440000
C      -43.22140000     -32.24200000     -69.07320000
C      -43.72550000     -31.06600000     -69.63400000
H      -44.04530000     -30.06700000     -71.44570000
H      -41.31710000     -33.48590000     -71.59850000
H      -43.45420000     -32.51270000     -68.05370000
H      -44.58210000     -30.56040000     -69.12720000
C      -42.06260000     -34.45730000     -69.15310000
H      -42.49180000     -34.37180000     -68.08940000
H      -40.98000000     -34.74320000     -69.16900000
C      -42.16450000     -31.25170000     -73.10520000
H      -42.41820000     -30.18480000     -73.29510000
H      -41.08490000     -31.29320000     -73.24820000
S      -42.98480000     -35.82890000     -69.97930000
S      -43.15970000     -32.18230000     -74.44970000
C      -44.72070000     -35.13800000     -69.83870000
H      -45.20480000     -35.25100000     -68.86570000
H      -44.69840000     -34.07710000     -70.04640000
C      -44.93810000     -32.06970000     -73.90650000
H      -45.60020000     -32.12720000     -74.76160000
H      -45.18460000     -31.20030000     -73.29530000
C      -45.31190000     -33.30920000     -73.01530000
H      -45.26310000     -34.16220000     -73.67440000
H      -44.55600000     -33.44390000     -72.22080000
C      -45.67220000     -35.88780000     -70.76010000
H      -45.70120000     -36.95770000     -70.38640000
H      -45.24900000     -35.96470000     -71.80820000
C      -47.03750000     -35.26100000     -70.75670000
C      -48.06190000     -35.65540000     -69.91310000
C      -47.39660000     -34.00800000     -71.44300000
H      -48.20600000     -36.50990000     -69.26350000
C      -48.68330000     -33.64630000     -71.14820000
C      -46.72700000     -33.11470000     -72.36770000
C      -47.50980000     -32.04540000     -72.68670000
S      -49.52270000     -34.70320000     -70.09110000
S      -49.04520000     -32.10510000     -71.84740000
H      -47.26410000     -31.15760000     -73.30820000
