40
Properties=species:S:1:pos:R:3 #=T CELL(abcABC):=T 1.889726e+02=T 90.00000=T Traj:=T positionsangstrom=T Step:=T 0=T Bead:=T pbc="F F F"
C      -42.91840000     -30.53450000     -70.22940000
C      -42.43430000     -31.48000000     -71.16290000
C      -42.23760000     -32.81390000     -70.77880000
C      -42.49930000     -33.24750000     -69.49220000
C      -43.04010000     -32.34010000     -68.61530000
C      -43.19830000     -30.98820000     -68.93180000
H      -43.20070000     -29.49820000     -70.42770000
H      -41.89180000     -33.52800000     -71.55220000
H      -43.39470000     -32.69390000     -67.64470000
H      -43.57730000     -30.26320000     -68.17420000
C      -42.32830000     -34.64450000     -68.98120000
H      -42.71340000     -34.83630000     -67.98660000
H      -41.23520000     -34.98860000     -68.90620000
C      -42.00510000     -31.02010000     -72.55670000
H      -41.98670000     -29.94350000     -72.62820000
H      -41.00700000     -31.47810000     -72.69060000
S      -43.18600000     -35.81530000     -70.08470000
S      -43.06270000     -31.82050000     -73.90290000
C      -44.80670000     -35.10970000     -70.19500000
H      -45.34440000     -35.16470000     -69.23580000
H      -44.58030000     -34.08290000     -70.42550000
C      -44.80860000     -31.49560000     -73.51480000
H      -45.28250000     -31.31170000     -74.51980000
H      -45.05210000     -30.49340000     -73.03510000
C      -45.32350000     -32.80340000     -72.83790000
H      -44.89860000     -33.52470000     -73.59530000
H      -44.69380000     -32.95650000     -71.94080000
C      -45.56750000     -35.73500000     -71.33830000
H      -45.48010000     -36.86980000     -71.20350000
H      -45.06050000     -35.47280000     -72.20960000
C      -46.98650000     -35.40290000     -71.38940000
C      -47.96820000     -36.08620000     -70.65320000
C      -47.41450000     -34.11930000     -71.90070000
H      -47.98880000     -37.04440000     -70.19980000
C      -48.77490000     -33.92150000     -71.57820000
C      -46.81190000     -33.00020000     -72.52770000
C      -47.78640000     -31.97240000     -72.73730000
S      -49.51450000     -35.24640000     -70.73430000
S      -49.34220000     -32.37900000     -72.07470000
H      -47.50740000     -31.05170000     -73.28090000
