40
Properties=species:S:1:pos:R:3 #=T CELL(abcABC):=T 1.889726e+02=T 90.00000=T Traj:=T positionsangstrom=T Step:=T 0=T Bead:=T pbc="F F F"
C      -43.29420000     -30.67370000     -70.73340000
C      -42.35240000     -31.39990000     -71.52420000
C      -41.94590000     -32.68750000     -71.00160000
C      -42.45680000     -33.15220000     -69.79840000
C      -43.19410000     -32.30630000     -68.95590000
C      -43.71640000     -31.10540000     -69.52270000
H      -43.70780000     -29.70970000     -71.01700000
H      -41.46540000     -33.40230000     -71.67790000
H      -43.61220000     -32.65430000     -67.97520000
H      -44.40440000     -30.55440000     -68.93500000
C      -42.04660000     -34.55100000     -69.43390000
H      -42.11170000     -34.76750000     -68.34670000
H      -40.97000000     -34.60210000     -69.57940000
C      -42.19450000     -31.07620000     -73.02890000
H      -42.68040000     -30.11990000     -73.24530000
H      -41.15380000     -31.08160000     -73.37620000
S      -42.95130000     -35.86220000     -70.33210000
S      -43.02290000     -32.49800000     -73.99460000
C      -44.62510000     -35.22420000     -69.87280000
H      -44.89150000     -35.51290000     -68.86780000
H      -44.58360000     -34.10590000     -69.94470000
C      -44.79400000     -32.10530000     -73.75240000
H      -45.28430000     -32.31850000     -74.75100000
H      -45.04370000     -31.09520000     -73.42670000
C      -45.34670000     -33.07990000     -72.75550000
H      -45.12690000     -34.07260000     -73.19660000
H      -44.71170000     -33.07520000     -71.87150000
C      -45.68250000     -35.78810000     -70.94340000
H      -45.85440000     -36.80890000     -70.69990000
H      -45.26270000     -35.68550000     -71.95830000
C      -47.06120000     -35.07890000     -70.76120000
C      -48.04430000     -35.59910000     -69.94010000
C      -47.51300000     -33.93200000     -71.54210000
H      -47.92210000     -36.29310000     -69.18500000
C      -48.84130000     -33.70140000     -71.32830000
C      -46.85830000     -33.01720000     -72.40630000
C      -47.68570000     -32.01230000     -72.77090000
S      -49.49140000     -34.69670000     -70.05730000
S      -49.31490000     -32.22890000     -72.10980000
H      -47.59450000     -31.22740000     -73.47230000
