40
Properties=species:S:1:pos:R:3 #=T CELL(abcABC):=T 1.889726e+02=T 90.00000=T Traj:=T positionsangstrom=T Step:=T 0=T Bead:=T pbc="F F F"
C      -42.94350000     -30.51880000     -70.36880000
C      -42.52940000     -31.38100000     -71.40240000
C      -42.21230000     -32.72520000     -71.05890000
C      -42.36370000     -33.16540000     -69.71720000
C      -42.83280000     -32.25040000     -68.71940000
C      -43.16470000     -30.95620000     -69.07010000
H      -43.19490000     -29.51620000     -70.65910000
H      -41.81780000     -33.37390000     -71.76350000
H      -43.17850000     -32.54540000     -67.70480000
H      -43.57290000     -30.27320000     -68.39840000
C      -41.96180000     -34.54760000     -69.36180000
H      -41.75650000     -34.63170000     -68.28520000
H      -40.99160000     -34.79960000     -69.73880000
C      -42.30510000     -30.83130000     -72.79240000
H      -42.71220000     -29.82850000     -72.91680000
H      -41.30060000     -30.80910000     -73.07620000
S      -43.03590000     -36.00370000     -70.02620000
S      -43.05360000     -31.99180000     -73.99030000
C      -44.75980000     -35.36200000     -69.81770000
H      -45.06930000     -35.74910000     -68.82880000
H      -44.71800000     -34.25450000     -69.76380000
C      -44.81520000     -31.84250000     -73.54680000
H      -45.44810000     -31.59640000     -74.40790000
H      -44.89780000     -31.06850000     -72.80710000
C      -45.35330000     -33.16920000     -72.96070000
H      -45.14410000     -33.93930000     -73.74350000
H      -44.70930000     -33.58130000     -72.11450000
C      -45.74200000     -35.95190000     -70.84480000
H      -45.83690000     -37.02470000     -70.80920000
H      -45.21200000     -35.86200000     -71.87310000
C      -47.15330000     -35.34290000     -70.93590000
C      -48.26870000     -35.80270000     -70.34490000
C      -47.51190000     -34.11790000     -71.71770000
H      -48.36270000     -36.68270000     -69.63880000
C      -48.81340000     -33.80700000     -71.52750000
C      -46.77690000     -33.12050000     -72.59020000
C      -47.61910000     -32.10220000     -72.81580000
S      -49.72780000     -34.89980000     -70.61300000
S      -49.19190000     -32.21460000     -72.09640000
H      -47.45030000     -31.14530000     -73.31940000
