40
Properties=species:S:1:pos:R:3 #=T CELL(abcABC):=T 1.889726e+02=T 90.00000=T Traj:=T positionsangstrom=T Step:=T 0=T Bead:=T pbc="F F F"
C      -43.68470000     -30.62830000     -69.71830000
C      -42.81500000     -31.13660000     -70.62420000
C      -42.15840000     -32.40900000     -70.38400000
C      -42.55670000     -33.17720000     -69.28200000
C      -43.47360000     -32.61800000     -68.35330000
C      -44.04400000     -31.34280000     -68.57810000
H      -44.21110000     -29.68440000     -69.97230000
H      -41.32900000     -32.70880000     -71.01770000
H      -43.77130000     -33.17710000     -67.49580000
H      -44.78850000     -30.89840000     -67.90070000
C      -42.02870000     -34.60960000     -68.98200000
H      -42.17320000     -34.85830000     -67.91450000
H      -41.02110000     -34.65640000     -69.37490000
C      -42.51110000     -30.39650000     -71.88650000
H      -42.88000000     -29.38170000     -71.92770000
H      -41.46280000     -30.23720000     -71.94950000
S      -43.01670000     -35.94400000     -69.82100000
S      -42.90450000     -31.29510000     -73.40580000
C      -44.75290000     -35.27220000     -70.07180000
H      -45.27000000     -35.47460000     -69.11840000
H      -44.69780000     -34.09740000     -70.30340000
C      -44.72960000     -31.39040000     -73.24310000
H      -45.11670000     -31.35530000     -74.28140000
H      -45.20780000     -30.56200000     -72.64960000
C      -45.17510000     -32.74820000     -72.64790000
H      -44.68420000     -33.51590000     -73.25420000
H      -44.64820000     -32.98510000     -71.67110000
C      -45.42220000     -35.95220000     -71.35340000
H      -45.32410000     -37.00570000     -71.15790000
H      -44.75210000     -35.76640000     -72.24240000
C      -46.83800000     -35.49450000     -71.50780000
C      -47.88690000     -36.31950000     -71.46150000
C      -47.21870000     -34.17680000     -71.93900000
H      -47.88160000     -37.25460000     -71.14260000
C      -48.61300000     -34.03250000     -71.94540000
C      -46.65730000     -32.98890000     -72.57830000
C      -47.56850000     -32.01820000     -72.93510000
S      -49.46020000     -35.47710000     -71.72020000
S      -49.21670000     -32.56050000     -72.66240000
H      -47.22740000     -31.12960000     -73.40870000
