40
Properties=species:S:1:pos:R:3 #=T CELL(abcABC):=T 1.889726e+02=T 90.00000=T Traj:=T positionsangstrom=T Step:=T 0=T Bead:=T pbc="F F F"
C      -46.26990000     -36.49910000     -70.89660000
C      -47.35170000     -35.71530000     -70.46990000
C      -47.17240000     -34.81030000     -69.44800000
C      -45.97430000     -34.68290000     -68.72960000
C      -44.84300000     -35.42200000     -69.23420000
C      -44.99440000     -36.30430000     -70.32230000
H      -46.33140000     -37.25290000     -71.67110000
H      -48.06430000     -34.20190000     -69.28270000
H      -43.83980000     -35.49130000     -68.75210000
H      -44.15540000     -36.84410000     -70.76740000
C      -45.77960000     -33.63030000     -67.56010000
H      -45.23900000     -34.01080000     -66.68610000
H      -46.76800000     -33.25770000     -67.18410000
C      -48.69400000     -35.82150000     -71.16160000
H      -48.66350000     -36.75590000     -71.82710000
H      -49.43870000     -35.88160000     -70.39880000
S      -44.85770000     -32.14230000     -68.22000000
S      -49.09840000     -34.41130000     -72.28710000
C      -46.08030000     -31.68710000     -69.51860000
H      -46.56230000     -32.60400000     -69.90500000
H      -46.87360000     -31.11510000     -69.16340000
C      -47.53860000     -34.08910000     -73.27630000
H      -47.75160000     -33.63570000     -74.27060000
H      -47.04380000     -35.01250000     -73.50900000
C      -46.65400000     -33.11690000     -72.52340000
H      -47.02710000     -32.06310000     -72.75100000
H      -46.62930000     -33.33960000     -71.47470000
C      -45.50910000     -30.76970000     -70.66690000
H      -45.33580000     -29.80480000     -70.14230000
H      -46.33550000     -30.62130000     -71.45190000
C      -44.26580000     -31.17580000     -71.44290000
C      -42.98430000     -30.61640000     -71.30340000
C      -44.27830000     -32.19560000     -72.45220000
H      -42.83550000     -29.77690000     -70.71990000
C      -42.92410000     -32.33370000     -73.02540000
C      -45.22670000     -33.12050000     -73.07510000
C      -44.58570000     -33.98680000     -74.03900000
S      -41.72720000     -31.27960000     -72.30770000
S      -42.86700000     -33.60890000     -74.24290000
H      -45.14340000     -34.66070000     -74.66860000
