40
Properties=species:S:1:pos:R:3 #=T CELL(abcABC):=T 1.889726e+02=T 90.00000=T Traj:=T positionsangstrom=T Step:=T 0=T Bead:=T pbc="F F F"
C      -45.90640000     -35.91460000     -71.28430000
C      -46.92110000     -35.53650000     -70.41070000
C      -46.62430000     -34.85100000     -69.26890000
C      -45.32630000     -34.57160000     -68.90390000
C      -44.23350000     -35.02100000     -69.71710000
C      -44.54900000     -35.70240000     -70.92960000
H      -46.29830000     -36.31000000     -72.23980000
H      -47.40740000     -34.65070000     -68.51570000
H      -43.23890000     -34.80380000     -69.46030000
H      -43.63300000     -35.80040000     -71.61370000
C      -44.99590000     -33.60840000     -67.79350000
H      -43.99620000     -33.69450000     -67.36660000
H      -45.73560000     -33.68390000     -66.98980000
C      -48.27990000     -35.86260000     -70.75340000
H      -48.27710000     -36.74670000     -71.34910000
H      -48.91480000     -35.96800000     -69.83940000
S      -44.80840000     -31.79600000     -68.33710000
S      -49.18940000     -34.55910000     -71.71690000
C      -46.12310000     -31.48210000     -69.56580000
H      -46.71780000     -32.38120000     -69.78630000
H      -46.94070000     -30.75410000     -69.19110000
C      -48.01900000     -33.93440000     -73.12220000
H      -48.71500000     -33.55540000     -73.85510000
H      -47.43710000     -34.75370000     -73.58570000
C      -47.06400000     -32.87160000     -72.76280000
H      -47.30490000     -32.10350000     -73.50830000
H      -47.14600000     -32.50510000     -71.74900000
C      -45.63160000     -30.66840000     -70.73070000
H      -45.27280000     -29.72070000     -70.34410000
H      -46.32500000     -30.60560000     -71.55390000
C      -44.33730000     -31.23890000     -71.50670000
C      -43.12650000     -30.73290000     -71.48780000
C      -44.44880000     -32.45910000     -72.41070000
H      -42.58900000     -30.01870000     -70.87250000
C      -43.21000000     -32.79310000     -72.87930000
C      -45.56060000     -33.18030000     -73.00230000
C      -45.07980000     -33.99930000     -74.00000000
S      -41.94290000     -31.72140000     -72.30160000
S      -43.31760000     -34.06360000     -74.12070000
H      -45.69070000     -34.52150000     -74.81130000
