40
Properties=species:S:1:pos:R:3 #=T CELL(abcABC):=T 1.889726e+02=T 90.00000=T Traj:=T positionsangstrom=T Step:=T 0=T Bead:=T pbc="F F F"
C      -45.88090000     -35.78110000     -68.40610000
C      -45.81230000     -34.43510000     -68.10780000
C      -44.57940000     -33.80670000     -68.25230000
C      -43.42560000     -34.45360000     -68.73120000
C      -43.52510000     -35.80480000     -68.93740000
C      -44.76290000     -36.46080000     -68.88630000
H      -46.78600000     -36.30240000     -68.26040000
H      -44.69400000     -32.70350000     -68.10370000
H      -42.59030000     -36.34790000     -69.06370000
H      -44.77310000     -37.55680000     -68.86470000
C      -42.06840000     -33.80750000     -68.80440000
H      -41.33580000     -34.38500000     -69.35640000
H      -41.65320000     -33.55460000     -67.77590000
C      -47.05030000     -33.62350000     -67.77940000
H      -47.86940000     -34.32350000     -67.41690000
H      -46.85560000     -32.75280000     -67.11000000
S      -42.12440000     -32.26960000     -69.91560000
S      -47.82720000     -32.99250000     -69.37180000
C      -42.71940000     -33.11210000     -71.42290000
H      -41.89390000     -33.46320000     -72.03630000
H      -43.29090000     -34.01550000     -71.16500000
C      -46.30630000     -32.17110000     -70.08840000
H      -45.62200000     -32.95540000     -70.33590000
H      -45.91400000     -31.58700000     -69.22180000
C      -46.61160000     -31.22840000     -71.28660000
H      -47.52180000     -30.63960000     -71.09860000
H      -45.82870000     -30.44960000     -71.54310000
C      -43.52110000     -32.14060000     -72.26820000
H      -42.86960000     -31.39590000     -72.69700000
H      -44.20440000     -31.57400000     -71.60140000
C      -44.34070000     -32.83240000     -73.27710000
C      -43.82110000     -33.57770000     -74.34890000
C      -45.79720000     -32.75310000     -73.35830000
H      -42.82000000     -33.81600000     -74.65260000
C      -46.31570000     -33.35450000     -74.48210000
C      -46.79930000     -32.05280000     -72.54820000
C      -48.03100000     -32.11460000     -73.14510000
S      -45.08670000     -34.22320000     -75.39200000
S      -48.06730000     -33.09600000     -74.62530000
H      -48.86790000     -31.65770000     -72.59350000
