40
Properties=species:S:1:pos:R:3 #=T CELL(abcABC):=T 1.889726e+02=T 90.00000=T Traj:=T positionsangstrom=T Step:=T 0=T Bead:=T pbc="F F F"
C      -46.27610000     -36.40350000     -71.07570000
C      -47.32140000     -35.71790000     -70.41760000
C      -47.07400000     -34.74970000     -69.37880000
C      -45.77560000     -34.49150000     -68.98880000
C      -44.75020000     -35.12350000     -69.68090000
C      -44.99700000     -36.06380000     -70.66210000
H      -46.44520000     -37.06430000     -71.91420000
H      -47.81260000     -34.11930000     -68.87820000
H      -43.70260000     -34.83680000     -69.49370000
H      -44.09300000     -36.49700000     -71.10550000
C      -45.57020000     -33.53680000     -67.87570000
H      -44.98950000     -34.04170000     -67.01360000
H      -46.54430000     -33.23440000     -67.44250000
C      -48.70690000     -35.89720000     -70.92210000
H      -48.86930000     -36.88470000     -71.35060000
H      -49.49170000     -35.77860000     -70.10430000
S      -44.61480000     -32.00970000     -68.39100000
S      -49.14690000     -34.65590000     -72.21530000
C      -45.88230000     -31.35680000     -69.54590000
H      -46.34710000     -32.18340000     -69.95370000
H      -46.69950000     -30.84380000     -69.07780000
C      -47.39140000     -34.40630000     -73.00460000
H      -47.62750000     -34.17820000     -74.09270000
H      -46.76060000     -35.28100000     -72.96050000
C      -46.74650000     -33.12000000     -72.36220000
H      -47.37560000     -32.22350000     -72.59570000
H      -46.81710000     -33.27090000     -71.25810000
C      -45.43230000     -30.47070000     -70.68790000
H      -45.13520000     -29.45420000     -70.30150000
H      -46.28700000     -30.40260000     -71.38160000
C      -44.25300000     -30.99520000     -71.51450000
C      -42.93540000     -30.68690000     -71.27080000
C      -44.30750000     -32.11360000     -72.44550000
H      -42.57850000     -29.99950000     -70.50600000
C      -43.13450000     -32.43190000     -72.94790000
C      -45.32690000     -33.03930000     -72.86470000
C      -44.86810000     -33.95010000     -73.82730000
S      -41.80040000     -31.52800000     -72.22270000
S      -43.16140000     -33.82070000     -74.13440000
H      -45.44340000     -34.78210000     -74.29890000
