40
Properties=species:S:1:pos:R:3 #=T CELL(abcABC):=T 1.889726e+02=T 90.00000=T Traj:=T positionsangstrom=T Step:=T 0=T Bead:=T pbc="F F F"
C      -46.00040000     -36.20260000     -71.15300000
C      -47.02840000     -35.54860000     -70.48330000
C      -46.84060000     -34.73260000     -69.40880000
C      -45.51680000     -34.50790000     -68.93610000
C      -44.48370000     -35.21030000     -69.53370000
C      -44.75350000     -35.99950000     -70.70240000
H      -46.28630000     -36.85390000     -71.96620000
H      -47.63020000     -34.23610000     -68.88540000
H      -43.47880000     -35.03960000     -69.10120000
H      -43.94490000     -36.41400000     -71.28150000
C      -45.29270000     -33.59580000     -67.80480000
H      -44.52970000     -34.06570000     -67.18850000
H      -46.26010000     -33.44110000     -67.27050000
C      -48.43330000     -35.79940000     -70.88790000
H      -48.37660000     -36.73170000     -71.55950000
H      -49.07610000     -35.95940000     -70.06230000
S      -44.66170000     -31.86690000     -68.37520000
S      -49.15840000     -34.42110000     -71.97710000
C      -46.09800000     -31.29320000     -69.40800000
H      -46.73250000     -32.19390000     -69.68920000
H      -46.73840000     -30.59180000     -68.91880000
C      -47.71280000     -34.32060000     -73.11480000
H      -48.15040000     -34.02780000     -74.05790000
H      -47.30970000     -35.32710000     -73.24070000
C      -46.86800000     -33.13860000     -72.70510000
H      -47.45630000     -32.30630000     -73.14810000
H      -46.97460000     -32.90750000     -71.60470000
C      -45.65140000     -30.61280000     -70.76870000
H      -45.43620000     -29.57220000     -70.63030000
H      -46.40370000     -30.50860000     -71.54160000
C      -44.42820000     -31.17310000     -71.55140000
C      -43.15290000     -30.75220000     -71.27210000
C      -44.48460000     -32.27610000     -72.45180000
H      -42.84650000     -29.93630000     -70.57360000
C      -43.16760000     -32.61950000     -72.94100000
C      -45.44390000     -33.11940000     -72.97130000
C      -44.89780000     -34.00800000     -73.93880000
S      -41.95890000     -31.67950000     -72.21750000
S      -43.13020000     -33.91870000     -74.14080000
H      -45.37130000     -34.80170000     -74.37760000
