40
Properties=species:S:1:pos:R:3 #=T CELL(abcABC):=T 1.889726e+02=T 90.00000=T Traj:=T positionsangstrom=T Step:=T 0=T Bead:=T pbc="F F F"
C      -45.93860000     -35.65390000     -68.43980000
C      -45.80990000     -34.33910000     -68.03950000
C      -44.55610000     -33.77780000     -67.99540000
C      -43.38600000     -34.45580000     -68.46200000
C      -43.58710000     -35.79150000     -68.79330000
C      -44.81990000     -36.45890000     -68.74690000
H      -46.89630000     -36.04650000     -68.47150000
H      -44.47600000     -32.78770000     -67.54250000
H      -42.82300000     -36.38890000     -69.23380000
H      -44.94850000     -37.42280000     -69.21950000
C      -42.07290000     -33.77810000     -68.55670000
H      -41.20190000     -34.46010000     -68.47690000
H      -42.05570000     -33.18110000     -67.67640000
C      -47.04900000     -33.50990000     -67.74840000
H      -47.83310000     -33.98000000     -67.16780000
H      -46.78820000     -32.66220000     -67.13790000
S      -41.91300000     -32.56180000     -69.86540000
S      -47.81470000     -32.75510000     -69.34160000
C      -42.81410000     -33.24700000     -71.35710000
H      -42.07250000     -33.93560000     -71.79870000
H      -43.64940000     -33.86780000     -70.98780000
C      -46.32840000     -32.11210000     -70.20740000
H      -45.74230000     -32.94430000     -70.59100000
H      -45.77390000     -31.51020000     -69.43640000
C      -46.71070000     -31.17480000     -71.44200000
H      -47.55720000     -30.54900000     -71.17250000
H      -45.85970000     -30.52150000     -71.53080000
C      -43.38490000     -32.23180000     -72.35370000
H      -42.56920000     -31.76900000     -72.87120000
H      -43.85290000     -31.42590000     -71.73670000
C      -44.37490000     -32.78780000     -73.37030000
C      -43.90210000     -33.58870000     -74.38610000
C      -45.81140000     -32.65110000     -73.45910000
H      -42.92080000     -34.01720000     -74.44390000
C      -46.32420000     -33.35240000     -74.56040000
C      -46.87480000     -32.04750000     -72.69600000
C      -48.06930000     -32.15480000     -73.30560000
S      -45.14720000     -34.22930000     -75.43740000
S      -48.04140000     -33.18760000     -74.75340000
H      -49.07830000     -31.89570000     -72.95930000
