40
Properties=species:S:1:pos:R:3 #=T CELL(abcABC):=T 1.889726e+02=T 90.00000=T Traj:=T positionsangstrom=T Step:=T 0=T Bead:=T pbc="F F F"
C      -46.27500000     -36.33260000     -71.08450000
C      -47.33240000     -35.75090000     -70.43310000
C      -47.13640000     -34.90830000     -69.31520000
C      -45.83210000     -34.70090000     -68.78410000
C      -44.76500000     -35.32160000     -69.45560000
C      -44.98490000     -36.10580000     -70.61020000
H      -46.35970000     -36.96080000     -71.92730000
H      -47.99710000     -34.51510000     -68.74170000
H      -43.65520000     -35.12280000     -69.24940000
H      -44.16580000     -36.65390000     -71.06880000
C      -45.52330000     -33.62440000     -67.67300000
H      -44.81830000     -34.11710000     -67.01140000
H      -46.42450000     -33.35170000     -67.14000000
C      -48.69550000     -35.89700000     -71.06400000
H      -48.86830000     -36.83600000     -71.53570000
H      -49.46030000     -35.84340000     -70.25900000
S      -44.78660000     -32.08720000     -68.41150000
S      -49.20810000     -34.51040000     -72.28910000
C      -46.11500000     -31.26640000     -69.44750000
H      -46.68540000     -32.14620000     -69.83380000
H      -46.69390000     -30.53250000     -68.84230000
C      -47.78000000     -34.13050000     -73.26190000
H      -48.19530000     -33.68160000     -74.24430000
H      -47.34550000     -34.98820000     -73.54040000
C      -46.71610000     -33.21800000     -72.47920000
H      -47.07050000     -32.21500000     -72.45750000
H      -46.73860000     -33.43990000     -71.39460000
C      -45.35950000     -30.56180000     -70.54900000
H      -45.03050000     -29.62360000     -70.13650000
H      -46.10330000     -30.20530000     -71.25160000
C      -44.23090000     -31.19840000     -71.31000000
C      -42.98880000     -30.60570000     -71.21880000
C      -44.19990000     -32.35720000     -72.29680000
H      -42.72320000     -29.76850000     -70.58870000
C      -42.94490000     -32.47360000     -72.87810000
C      -45.20820000     -33.23590000     -72.89570000
C      -44.63770000     -34.00370000     -73.94330000
S      -41.77410000     -31.35040000     -72.35890000
S      -42.94670000     -33.64940000     -74.19360000
H      -45.21970000     -34.77750000     -74.50100000
