40
Properties=species:S:1:pos:R:3 #=T CELL(abcABC):=T 1.889726e+02=T 90.00000=T Traj:=T positionsangstrom=T Step:=T 0=T Bead:=T pbc="F F F"
C      -48.04070000     -33.72500000     -72.48400000
C      -48.15380000     -32.52030000     -71.66600000
C      -47.21640000     -31.56100000     -71.92760000
C      -46.27540000     -31.59170000     -72.98020000
C      -46.20850000     -32.72760000     -73.78750000
C      -47.12800000     -33.75710000     -73.53530000
H      -48.59940000     -34.62790000     -72.25120000
H      -47.37120000     -30.62680000     -71.37960000
H      -45.48250000     -32.76310000     -74.55110000
H      -47.06900000     -34.67670000     -74.06750000
C      -45.36080000     -30.38520000     -73.08970000
H      -45.98660000     -29.51590000     -72.70340000
H      -45.18210000     -30.22420000     -74.10110000
C      -49.24990000     -32.49500000     -70.61630000
H      -49.67900000     -31.49230000     -70.60130000
H      -50.03510000     -33.25100000     -70.87610000
S      -43.66210000     -30.49200000     -72.17100000
S      -48.46770000     -32.77100000     -68.97600000
C      -44.20890000     -31.19900000     -70.59560000
H      -44.62780000     -30.35980000     -69.99930000
H      -44.98220000     -31.99320000     -70.76680000
C      -47.44680000     -34.32760000     -69.08640000
H      -47.68160000     -34.93480000     -69.94920000
H      -47.81840000     -34.86720000     -68.19880000
C      -45.93200000     -34.06960000     -69.06160000
H      -45.62430000     -33.01010000     -69.40810000
H      -45.53250000     -34.23200000     -68.05600000
C      -43.22630000     -32.10580000     -69.81990000
H      -43.67400000     -32.28350000     -68.79150000
H      -42.25030000     -31.56640000     -69.66580000
C      -42.95880000     -33.34000000     -70.58250000
C      -41.90620000     -33.48890000     -71.44890000
C      -43.78920000     -34.56130000     -70.53510000
H      -41.08090000     -32.72340000     -71.61540000
C      -43.40640000     -35.46450000     -71.54980000
C      -45.08780000     -34.89620000     -70.01000000
C      -45.51870000     -36.07570000     -70.55700000
S      -41.97830000     -34.89050000     -72.38620000
S      -44.60040000     -36.69130000     -71.87050000
H      -46.46260000     -36.50750000     -70.35640000
