40
Properties=species:S:1:pos:R:3 #=T CELL(abcABC):=T 1.889726e+02=T 90.00000=T Traj:=T positionsangstrom=T Step:=T 0=T Bead:=T pbc="F F F"
C      -48.16940000     -33.44640000     -72.49070000
C      -48.26220000     -32.30800000     -71.76790000
C      -47.27940000     -31.29320000     -71.93470000
C      -46.18810000     -31.48600000     -72.75240000
C      -46.03260000     -32.73110000     -73.44740000
C      -47.02970000     -33.65940000     -73.33280000
H      -48.89740000     -34.30130000     -72.44020000
H      -47.47200000     -30.42560000     -71.38080000
H      -45.05170000     -32.85170000     -73.94630000
H      -46.85520000     -34.60920000     -73.89440000
C      -45.18250000     -30.34900000     -72.90270000
H      -45.58920000     -29.50230000     -72.42250000
H      -45.03670000     -30.05590000     -74.02390000
C      -49.25240000     -32.10160000     -70.61320000
H      -49.67790000     -31.08360000     -70.60930000
H      -50.09340000     -32.75710000     -70.62820000
S      -43.51250000     -30.71240000     -72.16190000
S      -48.26770000     -32.37410000     -69.06460000
C      -44.12460000     -31.14900000     -70.41970000
H      -44.03090000     -30.30040000     -69.72160000
H      -45.20920000     -31.39550000     -70.44730000
C      -47.58300000     -34.11570000     -69.34160000
H      -48.02690000     -34.42720000     -70.34550000
H      -47.97940000     -34.71970000     -68.51860000
C      -46.06110000     -34.01650000     -69.31670000
H      -45.72250000     -33.04090000     -69.66870000
H      -45.70520000     -34.03570000     -68.24240000
C      -43.27460000     -32.28840000     -69.84300000
H      -43.73470000     -32.56620000     -68.87960000
H      -42.28730000     -31.76930000     -69.60100000
C      -43.10140000     -33.51120000     -70.67390000
C      -41.97790000     -33.60070000     -71.45500000
C      -43.99520000     -34.62320000     -70.74450000
H      -41.37400000     -32.73180000     -71.65180000
C      -43.57350000     -35.54970000     -71.68350000
C      -45.31870000     -35.01850000     -70.14490000
C      -45.65650000     -36.27070000     -70.57750000
S      -42.03090000     -35.12530000     -72.38640000
S      -44.53820000     -36.99100000     -71.76680000
H      -46.52130000     -36.91530000     -70.38660000
