40
Properties=species:S:1:pos:R:3 #=T CELL(abcABC):=T 1.889726e+02=T 90.00000=T Traj:=T positionsangstrom=T Step:=T 0=T Bead:=T pbc="F F F"
C      -45.55830000     -30.95700000     -68.53410000
C      -44.27620000     -31.14500000     -69.05180000
C      -43.58490000     -32.32630000     -68.72260000
C      -44.24590000     -33.28480000     -67.97280000
C      -45.58300000     -33.12520000     -67.48500000
C      -46.26010000     -31.95600000     -67.84900000
H      -46.20130000     -30.05330000     -68.80290000
H      -42.53740000     -32.45060000     -68.93230000
H      -46.04960000     -33.96050000     -66.91650000
H      -47.28890000     -31.83070000     -67.66470000
C      -43.71160000     -34.67090000     -67.84990000
H      -44.38480000     -35.38160000     -67.33420000
H      -42.79160000     -34.67490000     -67.18100000
C      -43.60840000     -29.97890000     -69.82910000
H      -44.30670000     -29.22540000     -70.01980000
H      -42.85310000     -29.53860000     -69.23160000
S      -43.06020000     -35.33420000     -69.54360000
S      -42.92650000     -30.45360000     -71.48480000
C      -44.63080000     -35.55620000     -70.47540000
H      -45.06370000     -36.58880000     -70.19430000
H      -45.38970000     -34.84720000     -70.21540000
C      -44.45420000     -30.88380000     -72.38390000
H      -44.16170000     -30.57370000     -73.36650000
H      -45.27410000     -30.19280000     -72.09600000
C      -44.73860000     -32.35020000     -72.27940000
H      -43.79600000     -32.84080000     -72.66980000
H      -44.87420000     -32.73980000     -71.19090000
C      -44.40050000     -35.62310000     -71.98130000
H      -43.88430000     -36.62980000     -72.24210000
H      -43.69340000     -34.82160000     -72.29950000
C      -45.74920000     -35.50330000     -72.62920000
C      -46.50070000     -36.57550000     -72.97300000
C      -46.35400000     -34.22240000     -73.11720000
H      -46.34150000     -37.59930000     -72.59260000
C      -47.51980000     -34.45720000     -73.74400000
C      -45.95820000     -32.85170000     -73.04620000
C      -46.86800000     -32.08570000     -73.69090000
S      -47.82860000     -36.19790000     -73.98470000
S      -48.29300000     -32.97050000     -74.36620000
H      -46.84280000     -30.96940000     -73.72430000
