40
Properties=species:S:1:pos:R:3 #=T CELL(abcABC):=T 1.889726e+02=T 90.00000=T Traj:=T positionsangstrom=T Step:=T 0=T Bead:=T pbc="F F F"
C      -48.07850000     -33.59690000     -72.52580000
C      -48.23770000     -32.41450000     -71.78690000
C      -47.31180000     -31.38220000     -72.02090000
C      -46.21990000     -31.55870000     -72.88120000
C      -46.04800000     -32.77710000     -73.59500000
C      -47.04540000     -33.76050000     -73.45770000
H      -48.93010000     -34.27020000     -72.43680000
H      -47.28730000     -30.46440000     -71.39430000
H      -45.22250000     -32.94620000     -74.25270000
H      -47.02260000     -34.72590000     -73.97150000
C      -45.23660000     -30.48350000     -73.04630000
H      -45.64030000     -29.53780000     -72.69440000
H      -44.82290000     -30.31840000     -74.00310000
C      -49.26660000     -32.32090000     -70.63150000
H      -49.79320000     -31.36860000     -70.46630000
H      -49.99220000     -33.09730000     -70.62290000
S      -43.66790000     -30.74530000     -72.04890000
S      -48.38580000     -32.53410000     -69.02580000
C      -44.11600000     -31.10870000     -70.24040000
H      -43.98580000     -30.16940000     -69.70740000
H      -45.16630000     -31.29990000     -70.18860000
C      -47.51390000     -34.09080000     -69.29570000
H      -47.79590000     -34.38080000     -70.32240000
H      -47.97530000     -34.86370000     -68.70040000
C      -45.97390000     -34.16250000     -69.06080000
H      -45.70480000     -33.14200000     -68.95960000
H      -45.77100000     -34.58830000     -68.08860000
C      -43.15380000     -32.18790000     -69.77490000
H      -43.31730000     -32.56170000     -68.76310000
H      -42.14600000     -31.75540000     -69.67440000
C      -43.06450000     -33.37000000     -70.72730000
C      -41.91110000     -33.55320000     -71.46840000
C      -43.97750000     -34.47000000     -70.81450000
H      -41.06240000     -32.83980000     -71.58170000
C      -43.54960000     -35.42710000     -71.73970000
C      -45.20290000     -34.86370000     -70.16510000
C      -45.65220000     -36.10060000     -70.57680000
S      -42.02450000     -34.98800000     -72.44760000
S      -44.49190000     -36.84940000     -71.73810000
H      -46.59970000     -36.57640000     -70.40450000
