40
Properties=species:S:1:pos:R:3 #=T CELL(abcABC):=T 1.889726e+02=T 90.00000=T Traj:=T positionsangstrom=T Step:=T 0=T Bead:=T pbc="F F F"
C      -45.59930000     -30.87560000     -68.48810000
C      -44.32050000     -31.15990000     -69.05870000
C      -43.77480000     -32.38930000     -68.81570000
C      -44.44590000     -33.38970000     -68.07780000
C      -45.77560000     -33.18160000     -67.60100000
C      -46.31730000     -31.87630000     -67.81900000
H      -46.08490000     -29.93070000     -68.59990000
H      -42.91350000     -32.72840000     -69.31140000
H      -46.35600000     -33.95640000     -67.11110000
H      -47.30580000     -31.65740000     -67.54420000
C      -43.69750000     -34.64300000     -67.91020000
H      -44.36580000     -35.38180000     -67.40670000
H      -42.82750000     -34.48410000     -67.24790000
C      -43.54900000     -30.06170000     -69.69490000
H      -44.13680000     -29.10040000     -69.53930000
H      -42.55130000     -29.87500000     -69.16120000
S      -43.01160000     -35.36920000     -69.42960000
S      -42.96720000     -30.32270000     -71.40210000
C      -44.55180000     -35.66500000     -70.42340000
H      -44.88950000     -36.63260000     -70.04950000
H      -45.27510000     -34.92690000     -70.10530000
C      -44.48780000     -30.79850000     -72.46980000
H      -44.44360000     -30.43100000     -73.49670000
H      -45.37430000     -30.38800000     -71.97960000
C      -44.60750000     -32.29700000     -72.43010000
H      -43.71810000     -32.83190000     -72.71510000
H      -44.73710000     -32.52110000     -71.42070000
C      -44.32780000     -35.63620000     -71.96220000
H      -43.74940000     -36.49690000     -72.30830000
H      -43.82010000     -34.75460000     -72.12500000
C      -45.63410000     -35.53300000     -72.72930000
C      -46.36750000     -36.64720000     -73.09550000
C      -46.22030000     -34.23890000     -73.23710000
H      -46.24330000     -37.62790000     -72.68590000
C      -47.42690000     -34.46510000     -73.85290000
C      -45.92080000     -32.85650000     -73.06900000
C      -46.96130000     -32.11400000     -73.63330000
S      -47.85940000     -36.11320000     -73.87680000
S      -48.27220000     -33.05340000     -74.39910000
H      -47.07010000     -31.01740000     -73.53380000
