40
Properties=species:S:1:pos:R:3 #=T CELL(abcABC):=T 1.889726e+02=T 90.00000=T Traj:=T positionsangstrom=T Step:=T 0=T Bead:=T pbc="F F F"
C      -45.69800000     -30.91330000     -68.47010000
C      -44.37510000     -31.04670000     -68.89930000
C      -43.71210000     -32.32600000     -68.73140000
C      -44.41350000     -33.41710000     -68.20580000
C      -45.79500000     -33.28810000     -67.93710000
C      -46.42200000     -32.00610000     -67.97970000
H      -46.11550000     -29.95800000     -68.46430000
H      -42.60590000     -32.37000000     -68.97420000
H      -46.25970000     -34.11790000     -67.42880000
H      -47.48390000     -32.00790000     -67.70780000
C      -43.75500000     -34.65730000     -67.89600000
H      -44.27210000     -35.34950000     -67.17060000
H      -42.74580000     -34.41210000     -67.44270000
C      -43.63540000     -29.93260000     -69.57790000
H      -44.26880000     -28.99240000     -69.55300000
H      -42.76710000     -29.57570000     -69.01260000
S      -43.22470000     -35.63120000     -69.39530000
S      -43.08400000     -30.08930000     -71.35790000
C      -44.66960000     -35.63000000     -70.55670000
H      -45.27310000     -36.49320000     -70.38200000
H      -45.37260000     -34.83330000     -70.46080000
C      -44.64720000     -30.86250000     -72.19100000
H      -44.85240000     -30.17870000     -72.96650000
H      -45.43900000     -30.74230000     -71.45320000
C      -44.53250000     -32.35180000     -72.45610000
H      -43.70670000     -32.58180000     -73.07710000
H      -44.34790000     -32.86020000     -71.47310000
C      -44.25490000     -35.69830000     -72.01370000
H      -43.78080000     -36.64490000     -72.28090000
H      -43.40590000     -34.88700000     -72.34100000
C      -45.49730000     -35.52310000     -72.86070000
C      -46.29420000     -36.62530000     -73.10170000
C      -46.15210000     -34.27130000     -73.17110000
H      -46.05170000     -37.65140000     -72.94770000
C      -47.37950000     -34.46600000     -73.81140000
C      -45.75580000     -32.87880000     -73.13590000
C      -46.78560000     -32.02770000     -73.61900000
S      -47.74890000     -36.13900000     -73.91340000
S      -48.14070000     -32.96670000     -74.33330000
H      -46.83060000     -30.99930000     -73.69190000
