40
Properties=species:S:1:pos:R:3 #=T CELL(abcABC):=T 1.889726e+02=T 90.00000=T Traj:=T positionsangstrom=T Step:=T 0=T Bead:=T pbc="F F F"
C      -47.63380000     -32.78470000     -72.56690000
C      -47.58380000     -31.69690000     -71.66140000
C      -46.51150000     -30.80030000     -71.76390000
C      -45.41900000     -31.10130000     -72.61250000
C      -45.51810000     -32.15940000     -73.51610000
C      -46.65870000     -32.96610000     -73.52320000
H      -48.49680000     -33.53080000     -72.52190000
H      -46.56320000     -29.94770000     -71.12250000
H      -44.64490000     -32.43940000     -74.10710000
H      -46.85780000     -33.72060000     -74.25520000
C      -44.19480000     -30.24760000     -72.58010000
H      -44.45040000     -29.40500000     -72.06170000
H      -43.94020000     -29.93140000     -73.59290000
C      -48.67490000     -31.41500000     -70.66740000
H      -48.85420000     -30.35040000     -70.41440000
H      -49.63470000     -31.84680000     -71.01880000
S      -42.70780000     -31.08860000     -71.69520000
S      -48.30050000     -32.12120000     -68.84440000
C      -43.49800000     -31.59660000     -70.05250000
H      -43.20460000     -30.96750000     -69.26050000
H      -44.55620000     -31.45420000     -70.21580000
C      -47.68710000     -33.81820000     -68.97320000
H      -48.29700000     -34.29110000     -69.76960000
H      -47.99560000     -34.15780000     -67.96920000
C      -46.19400000     -33.97920000     -69.27030000
H      -45.83040000     -32.98760000     -69.43960000
H      -45.74810000     -34.38400000     -68.32320000
C      -43.06830000     -33.06290000     -69.64730000
H      -43.67650000     -33.35030000     -68.69910000
H      -41.96990000     -33.00990000     -69.43530000
C      -43.20070000     -34.19350000     -70.76720000
C      -42.24780000     -34.59290000     -71.62860000
C      -44.44020000     -34.97620000     -70.85830000
H      -41.32590000     -34.12860000     -71.74940000
C      -44.33490000     -36.01280000     -71.77630000
C      -45.82320000     -34.79630000     -70.46950000
C      -46.69880000     -35.52600000     -71.23690000
S      -42.67230000     -36.02150000     -72.52900000
S      -45.84150000     -36.70030000     -72.31770000
H      -47.78860000     -35.75740000     -71.10190000
