40
Properties=species:S:1:pos:R:3 #=T CELL(abcABC):=T 1.889726e+02=T 90.00000=T Traj:=T positionsangstrom=T Step:=T 0=T Bead:=T pbc="F F F"
C      -45.72810000     -30.87050000     -68.60870000
C      -44.42880000     -31.08790000     -69.10610000
C      -43.81740000     -32.35420000     -68.97440000
C      -44.48210000     -33.37370000     -68.27110000
C      -45.71860000     -33.06800000     -67.66180000
C      -46.37100000     -31.85070000     -67.90410000
H      -46.14500000     -29.95050000     -68.71290000
H      -42.85320000     -32.52260000     -69.40330000
H      -46.14950000     -33.89150000     -67.10040000
H      -47.33560000     -31.70950000     -67.39460000
C      -43.80470000     -34.71330000     -67.94870000
H      -44.55540000     -35.36060000     -67.52130000
H      -43.01180000     -34.61520000     -67.22630000
C      -43.60400000     -29.91300000     -69.65470000
H      -44.22020000     -29.04330000     -69.54370000
H      -42.66080000     -29.81920000     -69.15940000
S      -43.07990000     -35.71870000     -69.40840000
S      -42.99950000     -30.26110000     -71.38750000
C      -44.57210000     -35.60730000     -70.47660000
H      -45.18260000     -36.42770000     -70.19360000
H      -45.17240000     -34.64530000     -70.30120000
C      -44.57140000     -30.74450000     -72.18260000
H      -44.58080000     -30.26440000     -73.21810000
H      -45.38660000     -30.38300000     -71.57260000
C      -44.63150000     -32.25240000     -72.45670000
H      -43.72310000     -32.44060000     -73.04790000
H      -44.48010000     -32.86310000     -71.47400000
C      -44.30530000     -35.62410000     -71.99460000
H      -43.71390000     -36.44850000     -72.30030000
H      -43.64030000     -34.75730000     -72.19530000
C      -45.57160000     -35.50850000     -72.72270000
C      -46.33220000     -36.61020000     -73.02830000
C      -46.15990000     -34.25140000     -73.18850000
H      -45.98800000     -37.61470000     -73.00530000
C      -47.42350000     -34.44570000     -73.74320000
C      -45.77390000     -32.87800000     -73.17550000
C      -46.78340000     -32.09640000     -73.70110000
S      -47.81130000     -36.15300000     -73.82980000
S      -48.19540000     -32.97220000     -74.29440000
H      -46.72230000     -31.04090000     -73.80060000
