40
Properties=species:S:1:pos:R:3 #=T CELL(abcABC):=T 1.889726e+02=T 90.00000=T Traj:=T positionsangstrom=T Step:=T 0=T Bead:=T pbc="F F F"
C      -45.76890000     -30.97920000     -68.58600000
C      -44.42510000     -31.06840000     -68.75120000
C      -43.78380000     -32.30140000     -68.57070000
C      -44.47890000     -33.45370000     -68.14590000
C      -45.92330000     -33.38090000     -68.06880000
C      -46.57350000     -32.19650000     -68.34270000
H      -46.29160000     -29.97440000     -68.66460000
H      -42.73080000     -32.33780000     -68.75860000
H      -46.49810000     -34.30950000     -67.84820000
H      -47.65930000     -32.17800000     -68.16530000
C      -43.61120000     -34.63210000     -67.81270000
H      -44.16030000     -35.50500000     -67.36430000
H      -42.69220000     -34.36610000     -67.25470000
C      -43.66670000     -29.88590000     -69.46010000
H      -44.39030000     -29.04100000     -69.59340000
H      -42.77110000     -29.67860000     -68.84150000
S      -43.08070000     -35.30950000     -69.49240000
S      -43.10960000     -30.20070000     -71.23480000
C      -44.63180000     -35.57310000     -70.44360000
H      -45.14360000     -36.40480000     -70.01590000
H      -45.29760000     -34.70630000     -70.22840000
C      -44.83590000     -30.75690000     -71.83250000
H      -44.98650000     -30.29640000     -72.83200000
H      -45.62760000     -30.40080000     -71.25640000
C      -44.77370000     -32.29240000     -72.01000000
H      -43.85810000     -32.46470000     -72.62330000
H      -44.72750000     -32.90460000     -71.08580000
C      -44.35550000     -35.73600000     -71.93160000
H      -43.89450000     -36.73370000     -72.10520000
H      -43.63100000     -35.02440000     -72.24770000
C      -45.57990000     -35.56680000     -72.72420000
C      -46.13450000     -36.64510000     -73.37170000
C      -46.12620000     -34.26650000     -73.11080000
H      -45.58730000     -37.61440000     -73.43150000
C      -47.24080000     -34.48400000     -73.94390000
C      -45.93340000     -32.81350000     -72.81670000
C      -46.89920000     -32.07740000     -73.46090000
S      -47.51270000     -36.17590000     -74.40290000
S      -48.09400000     -33.06130000     -74.36160000
H      -46.87330000     -30.98700000     -73.53410000
