40
Properties=species:S:1:pos:R:3 #=T CELL(abcABC):=T 1.889726e+02=T 90.00000=T Traj:=T positionsangstrom=T Step:=T 0=T Bead:=T pbc="F F F"
C      -46.49830000     -30.78760000     -73.78980000
C      -46.02450000     -30.33760000     -72.53350000
C      -44.69570000     -30.52280000     -72.19040000
C      -43.73400000     -30.98610000     -73.10670000
C      -44.19440000     -31.40900000     -74.34810000
C      -45.55040000     -31.24220000     -74.78190000
H      -47.54730000     -30.43300000     -74.10060000
H      -44.45700000     -30.30160000     -71.18070000
H      -43.42870000     -31.74160000     -75.04030000
H      -45.92160000     -31.59150000     -75.77600000
C      -42.30680000     -30.97940000     -72.70690000
H      -41.78560000     -30.04620000     -73.08130000
H      -41.82870000     -31.87430000     -73.20530000
C      -47.01500000     -29.76330000     -71.46020000
H      -46.45660000     -29.52160000     -70.55440000
H      -47.63780000     -28.98190000     -71.95460000
S      -41.88360000     -31.35590000     -70.90670000
S      -48.36590000     -30.95780000     -70.97370000
C      -42.40690000     -33.13970000     -70.86740000
H      -42.02320000     -33.71900000     -71.74880000
H      -41.88670000     -33.52430000     -70.09500000
C      -47.49030000     -32.63230000     -70.53180000
H      -48.09280000     -33.13200000     -69.76910000
H      -46.61300000     -32.48740000     -70.09960000
C      -47.12970000     -33.62520000     -71.70950000
H      -47.99150000     -33.71260000     -72.32720000
H      -46.31220000     -33.38770000     -72.25990000
C      -43.94160000     -33.35630000     -70.58140000
H      -44.44280000     -32.96180000     -71.46620000
H      -44.37390000     -32.75450000     -69.68380000
C      -44.31170000     -34.81850000     -70.19190000
C      -43.49210000     -35.73030000     -69.57440000
C      -45.58510000     -35.41370000     -70.63210000
H      -42.52490000     -35.54380000     -69.07900000
C      -45.64640000     -36.79260000     -70.28430000
C      -46.88610000     -35.00370000     -71.15500000
C      -47.74100000     -36.07440000     -71.22300000
S      -44.24220000     -37.32900000     -69.40040000
S      -47.17470000     -37.57710000     -70.50650000
H      -48.75160000     -36.03990000     -71.65410000
