40
Properties=species:S:1:pos:R:3 #=T CELL(abcABC):=T 1.889726e+02=T 90.00000=T Traj:=T positionsangstrom=T Step:=T 0=T Bead:=T pbc="F F F"
C      -44.55770000     -29.76210000     -73.43490000
C      -45.56060000     -30.11140000     -72.49530000
C      -45.21130000     -30.33350000     -71.18000000
C      -43.90610000     -30.17100000     -70.74480000
C      -42.94730000     -29.82890000     -71.68090000
C      -43.19330000     -29.65400000     -73.03560000
H      -44.70640000     -29.44980000     -74.45520000
H      -46.00620000     -30.59250000     -70.43040000
H      -41.87680000     -29.95080000     -71.35090000
H      -42.42230000     -29.55410000     -73.76450000
C      -43.41420000     -30.27740000     -69.33210000
H      -43.90080000     -29.49730000     -68.74500000
H      -42.38720000     -30.00710000     -69.22570000
C      -46.97950000     -30.24910000     -73.04610000
H      -47.63650000     -29.96300000     -72.16560000
H      -47.18900000     -29.48480000     -73.84430000
S      -43.60570000     -31.94760000     -68.40680000
S      -47.53830000     -31.74920000     -73.94430000
C      -44.70180000     -33.03230000     -69.34180000
H      -44.71790000     -33.86040000     -68.62350000
H      -45.70100000     -32.50670000     -69.54410000
C      -46.58480000     -33.14850000     -73.27290000
H      -45.52110000     -32.94800000     -73.13770000
H      -46.68450000     -33.94130000     -74.07980000
C      -47.22610000     -33.58670000     -71.94380000
H      -46.96000000     -32.98070000     -71.10630000
H      -48.32640000     -33.45600000     -72.03650000
C      -43.90790000     -33.60900000     -70.65090000
H      -42.81250000     -33.51110000     -70.38610000
H      -44.16690000     -32.97410000     -71.49400000
C      -44.31980000     -35.04370000     -70.80250000
C      -43.47660000     -35.97080000     -70.36620000
C      -45.61330000     -35.64890000     -71.20550000
H      -42.51570000     -35.83250000     -69.89680000
C      -45.70590000     -36.98120000     -70.93070000
C      -46.93930000     -35.09130000     -71.64970000
C      -47.92130000     -36.06470000     -71.57160000
S      -44.11040000     -37.62480000     -70.45950000
S      -47.32830000     -37.58290000     -71.06270000
H      -48.98410000     -35.90230000     -71.80080000
