40
Properties=species:S:1:pos:R:3 #=T CELL(abcABC):=T 1.889726e+02=T 90.00000=T Traj:=T positionsangstrom=T Step:=T 0=T Bead:=T pbc="F F F"
C      -47.61190000     -32.51800000     -72.56730000
C      -47.41390000     -31.44450000     -71.73690000
C      -46.18800000     -30.76910000     -71.74540000
C      -45.20230000     -31.08370000     -72.71910000
C      -45.45980000     -32.14110000     -73.52640000
C      -46.65820000     -32.88630000     -73.51170000
H      -48.52710000     -33.08910000     -72.53510000
H      -46.02150000     -29.95120000     -71.06570000
H      -44.72640000     -32.46490000     -74.27980000
H      -46.65420000     -33.82190000     -74.09000000
C      -43.83380000     -30.45070000     -72.63770000
H      -43.76280000     -29.44010000     -72.17870000
H      -43.49710000     -30.50350000     -73.65780000
C      -48.44060000     -31.18630000     -70.70690000
H      -48.44680000     -30.12480000     -70.45470000
H      -49.41500000     -31.63150000     -70.94550000
S      -42.63650000     -31.50640000     -71.67540000
S      -48.08680000     -31.81620000     -68.97420000
C      -43.39500000     -31.86830000     -69.98580000
H      -43.13810000     -30.98890000     -69.30600000
H      -44.50120000     -31.89550000     -70.15070000
C      -47.84490000     -33.64320000     -69.12590000
H      -48.31590000     -33.98020000     -70.05150000
H      -48.28450000     -34.24920000     -68.30650000
C      -46.28900000     -33.95670000     -69.20350000
H      -45.82250000     -32.96380000     -69.34480000
H      -46.08450000     -34.21740000     -68.15110000
C      -42.98000000     -33.32790000     -69.63100000
H      -43.35080000     -33.52160000     -68.68280000
H      -41.86970000     -33.33860000     -69.30040000
C      -43.34670000     -34.26070000     -70.70170000
C      -42.41240000     -34.67120000     -71.61940000
C      -44.62120000     -35.01700000     -70.79200000
H      -41.37080000     -34.33260000     -71.69150000
C      -44.52330000     -35.91210000     -71.83800000
C      -45.94460000     -34.85810000     -70.27750000
C      -46.86480000     -35.67050000     -70.91000000
S      -42.96980000     -35.92400000     -72.70170000
S      -46.03180000     -36.68890000     -72.17220000
H      -47.85280000     -35.74310000     -70.49570000
