40
Properties=species:S:1:pos:R:3 #=T CELL(abcABC):=T 1.889726e+02=T 90.00000=T Traj:=T positionsangstrom=T Step:=T 0=T Bead:=T pbc="F F F"
C      -44.51160000     -29.86390000     -73.41450000
C      -45.55400000     -30.20690000     -72.50000000
C      -45.18570000     -30.38190000     -71.15840000
C      -43.93260000     -30.08230000     -70.65600000
C      -42.94170000     -29.77350000     -71.58890000
C      -43.20100000     -29.72140000     -72.96990000
H      -44.75680000     -29.94480000     -74.50670000
H      -45.86460000     -30.69680000     -70.43130000
H      -42.00330000     -29.36810000     -71.09080000
H      -42.50290000     -29.42100000     -73.78780000
C      -43.73520000     -30.22350000     -69.11760000
H      -44.58380000     -29.74110000     -68.64630000
H      -42.78530000     -29.61820000     -68.84700000
C      -46.98250000     -30.33230000     -72.79050000
H      -47.51140000     -30.56030000     -71.91380000
H      -47.34880000     -29.48910000     -73.27680000
S      -43.56670000     -31.84010000     -68.33490000
S      -47.34530000     -31.67050000     -74.07240000
C      -44.44470000     -33.10020000     -69.32320000
H      -44.67390000     -33.86940000     -68.71690000
H      -45.49180000     -32.83360000     -69.51690000
C      -46.67240000     -33.21960000     -73.26570000
H      -45.63360000     -33.09830000     -73.23740000
H      -46.85720000     -34.07170000     -73.94200000
C      -47.21130000     -33.52970000     -71.85280000
H      -46.71650000     -32.74750000     -71.21300000
H      -48.29820000     -33.33150000     -71.84790000
C      -43.87330000     -33.63570000     -70.69160000
H      -42.80250000     -33.64740000     -70.83430000
H      -44.23640000     -33.03910000     -71.56380000
C      -44.32400000     -35.06710000     -70.84470000
C      -43.45760000     -36.10010000     -70.70260000
C      -45.63220000     -35.53140000     -71.01990000
H      -42.52440000     -35.92580000     -70.17070000
C      -45.80490000     -36.92410000     -70.82940000
C      -46.93840000     -34.97390000     -71.39400000
C      -47.92780000     -35.94210000     -71.56380000
S      -44.17450000     -37.75720000     -70.64420000
S      -47.40750000     -37.60050000     -71.21110000
H      -48.79060000     -35.62830000     -72.09710000
