40
Properties=species:S:1:pos:R:3 #=T CELL(abcABC):=T 1.889726e+02=T 90.00000=T Traj:=T positionsangstrom=T Step:=T 0=T Bead:=T pbc="F F F"
C      -46.61890000     -30.79940000     -73.55590000
C      -46.38930000     -30.51650000     -72.19700000
C      -45.05800000     -30.19930000     -71.77950000
C      -43.97740000     -30.41450000     -72.65430000
C      -44.19710000     -30.87830000     -73.98050000
C      -45.53440000     -31.02250000     -74.42810000
H      -47.64160000     -30.86650000     -73.89860000
H      -44.88820000     -29.74420000     -70.79820000
H      -43.32250000     -31.01900000     -74.65990000
H      -45.72780000     -31.11870000     -75.43290000
C      -42.59250000     -30.19060000     -72.18020000
H      -42.44520000     -29.09040000     -71.84270000
H      -41.85960000     -30.32080000     -73.02340000
C      -47.53850000     -30.16610000     -71.25240000
H      -47.18460000     -29.82830000     -70.24650000
H      -48.14220000     -29.41870000     -71.74890000
S      -42.00650000     -31.20350000     -70.76480000
S      -48.78440000     -31.61750000     -71.14770000
C      -42.49440000     -32.99070000     -71.01990000
H      -42.33040000     -33.35660000     -71.99100000
H      -41.78470000     -33.54910000     -70.41140000
C      -47.62070000     -32.93580000     -70.48470000
H      -48.08030000     -33.51020000     -69.60770000
H      -46.78510000     -32.38100000     -69.97800000
C      -47.11610000     -33.74620000     -71.64990000
H      -47.95560000     -33.90210000     -72.32200000
H      -46.30740000     -33.25190000     -72.15870000
C      -43.91540000     -33.28300000     -70.66600000
H      -44.54220000     -33.00250000     -71.50070000
H      -44.20610000     -32.68570000     -69.78130000
C      -44.11220000     -34.77770000     -70.44790000
C      -43.16150000     -35.65540000     -69.99860000
C      -45.38150000     -35.48120000     -70.65010000
H      -42.17100000     -35.42950000     -69.63870000
C      -45.36910000     -36.84670000     -70.37570000
C      -46.68460000     -35.14550000     -71.22950000
C      -47.59400000     -36.20050000     -71.32460000
S      -43.79670000     -37.27810000     -69.83030000
S      -46.75590000     -37.72940000     -70.78600000
H      -48.56230000     -36.17210000     -71.81780000
