40
Properties=species:S:1:pos:R:3 #=T CELL(abcABC):=T 1.889726e+02=T 90.00000=T Traj:=T positionsangstrom=T Step:=T 0=T Bead:=T pbc="F F F"
C      -46.61110000     -30.72590000     -73.66490000
C      -46.35590000     -30.43680000     -72.33530000
C      -45.03490000     -30.40220000     -71.83580000
C      -43.98290000     -30.51570000     -72.76060000
C      -44.20600000     -30.72470000     -74.14030000
C      -45.51710000     -30.91880000     -74.52200000
H      -47.63190000     -30.88420000     -74.02330000
H      -44.81700000     -30.23910000     -70.78500000
H      -43.35160000     -30.81350000     -74.85010000
H      -45.69890000     -31.16650000     -75.57510000
C      -42.52540000     -30.36400000     -72.29750000
H      -42.27940000     -29.35140000     -72.07240000
H      -41.86180000     -30.71120000     -73.05170000
C      -47.52360000     -30.03410000     -71.46730000
H      -47.14710000     -29.59270000     -70.58370000
H      -48.14190000     -29.23510000     -72.03190000
S      -41.99580000     -31.22040000     -70.65240000
S      -48.66190000     -31.41050000     -70.88760000
C      -42.42790000     -33.01080000     -70.94480000
H      -42.18380000     -33.17220000     -72.01220000
H      -41.73430000     -33.52550000     -70.26600000
C      -47.61690000     -32.90710000     -70.53810000
H      -48.30250000     -33.50020000     -69.93610000
H      -46.77580000     -32.66320000     -69.89120000
C      -47.19430000     -33.74210000     -71.75730000
H      -48.01780000     -33.76210000     -72.48340000
H      -46.36080000     -33.17330000     -72.19100000
C      -43.84810000     -33.42120000     -70.59040000
H      -44.52630000     -33.07520000     -71.34310000
H      -44.16410000     -32.89880000     -69.66840000
C      -44.11290000     -34.85530000     -70.36080000
C      -43.29070000     -35.70960000     -69.67790000
C      -45.37160000     -35.49870000     -70.81540000
H      -42.31850000     -35.47540000     -69.38210000
C      -45.32840000     -36.87270000     -70.59110000
C      -46.70850000     -35.12950000     -71.34130000
C      -47.53340000     -36.24420000     -71.36990000
S      -43.91040000     -37.37470000     -69.70110000
S      -46.83790000     -37.69610000     -70.83020000
H      -48.61500000     -36.30450000     -71.72960000
