40
Properties=species:S:1:pos:R:3 #=T CELL(abcABC):=T 1.889726e+02=T 90.00000=T Traj:=T positionsangstrom=T Step:=T 0=T Bead:=T pbc="F F F"
C      -46.53720000     -30.79180000     -73.60040000
C      -46.14930000     -30.25100000     -72.38120000
C      -44.78820000     -30.39170000     -71.95300000
C      -43.82840000     -31.11690000     -72.75060000
C      -44.26470000     -31.70310000     -73.94890000
C      -45.57860000     -31.41710000     -74.39230000
H      -47.54100000     -30.68210000     -73.95140000
H      -44.47720000     -29.99760000     -71.03600000
H      -43.63920000     -32.27500000     -74.60430000
H      -45.95220000     -31.84780000     -75.31360000
C      -42.35430000     -31.21210000     -72.41720000
H      -41.91420000     -30.37880000     -72.90340000
H      -41.90900000     -32.11140000     -72.82670000
C      -47.10330000     -29.79360000     -71.38020000
H      -46.61230000     -29.41180000     -70.40220000
H      -47.63510000     -28.90660000     -71.69460000
S      -42.10620000     -31.26580000     -70.57600000
S      -48.46840000     -31.05350000     -70.95730000
C      -42.40170000     -33.02960000     -70.30720000
H      -41.80900000     -33.65800000     -70.95690000
H      -42.11360000     -33.17150000     -69.23790000
C      -47.59570000     -32.64400000     -70.48670000
H      -48.20120000     -33.26010000     -69.92070000
H      -46.70520000     -32.29940000     -69.89500000
C      -47.02270000     -33.47650000     -71.68050000
H      -47.75580000     -33.32620000     -72.42920000
H      -46.18010000     -33.10030000     -72.11330000
C      -43.91060000     -33.32550000     -70.54360000
H      -44.21160000     -32.90590000     -71.55650000
H      -44.43070000     -32.67500000     -69.84890000
C      -44.36150000     -34.77150000     -70.26570000
C      -43.51520000     -35.70370000     -69.70860000
C      -45.55590000     -35.39680000     -70.70690000
H      -42.50960000     -35.52200000     -69.47440000
C      -45.54720000     -36.74780000     -70.44760000
C      -46.81570000     -34.97220000     -71.36050000
C      -47.71550000     -35.99760000     -71.59130000
S      -44.03110000     -37.30760000     -69.85800000
S      -46.90950000     -37.54930000     -71.13290000
H      -48.57430000     -36.08800000     -72.26700000
