40
Properties=species:S:1:pos:R:3 #=T CELL(abcABC):=T 1.889726e+02=T 90.00000=T Traj:=T positionsangstrom=T Step:=T 0=T Bead:=T pbc="F F F"
C      -46.61620000     -30.77710000     -73.57230000
C      -46.18060000     -30.33940000     -72.28210000
C      -44.82040000     -30.38790000     -71.97610000
C      -43.86730000     -30.81730000     -72.89040000
C      -44.24010000     -30.96180000     -74.23840000
C      -45.61350000     -31.00490000     -74.52140000
H      -47.64250000     -30.92010000     -73.84960000
H      -44.47480000     -30.14360000     -70.93610000
H      -43.50610000     -31.14110000     -75.01400000
H      -45.90130000     -31.19270000     -75.51300000
C      -42.44050000     -30.84470000     -72.53630000
H      -42.05890000     -29.90740000     -72.74210000
H      -41.93950000     -31.59710000     -73.02360000
C      -47.22490000     -29.96850000     -71.25050000
H      -46.71050000     -29.74770000     -70.32490000
H      -47.76810000     -29.05970000     -71.67910000
S      -42.11430000     -31.16570000     -70.65440000
S      -48.53210000     -31.29600000     -70.94670000
C      -42.41690000     -32.96800000     -70.36090000
H      -41.79760000     -33.61520000     -71.02590000
H      -42.07990000     -33.15110000     -69.33050000
C      -47.42150000     -32.67990000     -70.49800000
H      -47.94850000     -33.12620000     -69.67490000
H      -46.52280000     -32.34370000     -70.12000000
C      -47.09520000     -33.59390000     -71.72120000
H      -47.93800000     -33.60260000     -72.41020000
H      -46.19800000     -33.17600000     -72.19380000
C      -43.94130000     -33.41020000     -70.45380000
H      -44.32720000     -33.24830000     -71.43120000
H      -44.45040000     -32.81090000     -69.64590000
C      -44.27140000     -34.86850000     -70.18530000
C      -43.37000000     -35.79160000     -69.72560000
C      -45.53570000     -35.43970000     -70.69800000
H      -42.41910000     -35.63530000     -69.10750000
C      -45.45720000     -36.85070000     -70.52350000
C      -46.81470000     -35.00380000     -71.21870000
C      -47.58680000     -36.10550000     -71.51230000
S      -43.98350000     -37.44850000     -69.85390000
S      -46.93150000     -37.64430000     -70.99620000
H      -48.58060000     -36.23370000     -71.84640000
