40
Properties=species:S:1:pos:R:3 #=T CELL(abcABC):=T 1.889726e+02=T 90.00000=T Traj:=T positionsangstrom=T Step:=T 0=T Bead:=T pbc="F F F"
C      -44.49890000     -34.82660000     -75.20080000
C      -43.52290000     -34.54110000     -74.25040000
C      -43.30260000     -35.38720000     -73.16010000
C      -44.28980000     -36.41540000     -72.93480000
C      -45.32340000     -36.66010000     -73.90220000
C      -45.42030000     -35.90090000     -75.03920000
H      -44.59300000     -34.21760000     -76.08480000
H      -42.40360000     -35.21560000     -72.50500000
H      -46.10460000     -37.48000000     -73.76850000
H      -46.13300000     -36.22080000     -75.86860000
C      -44.11310000     -37.32670000     -71.72390000
H      -43.31090000     -38.02020000     -71.82020000
H      -45.05120000     -37.81980000     -71.52690000
C      -42.72870000     -33.31140000     -74.44430000
H      -41.67880000     -33.56770000     -74.69720000
H      -43.19800000     -32.79790000     -75.27100000
S      -43.68100000     -36.29540000     -70.21370000
S      -42.48370000     -32.28240000     -72.84640000
C      -45.26650000     -35.25990000     -70.03220000
H      -45.59200000     -34.97180000     -71.07160000
H      -45.98010000     -35.80640000     -69.46860000
C      -44.24590000     -31.90950000     -72.35570000
H      -44.67660000     -32.83420000     -72.00500000
H      -44.83990000     -31.41370000     -73.14400000
C      -44.33090000     -31.04550000     -71.06640000
H      -43.75230000     -31.52920000     -70.23840000
H      -43.83700000     -30.12900000     -71.15520000
C      -44.95830000     -33.98440000     -69.15010000
H      -44.06440000     -33.57570000     -69.63700000
H      -44.58280000     -34.32600000     -68.17030000
C      -46.13570000     -33.10600000     -69.05330000
C      -47.32260000     -33.50330000     -68.38730000
C      -46.41710000     -31.78570000     -69.67790000
H      -47.26730000     -34.45550000     -67.82760000
C      -47.71530000     -31.36100000     -69.50460000
C      -45.72170000     -30.83030000     -70.58540000
C      -46.45940000     -29.66320000     -70.78860000
S      -48.74880000     -32.51190000     -68.67870000
S      -48.11290000     -29.82090000     -70.12180000
H      -46.02420000     -28.83320000     -71.37960000
