40
Properties=species:S:1:pos:R:3 #=T CELL(abcABC):=T 1.889726e+02=T 90.00000=T Traj:=T positionsangstrom=T Step:=T 0=T Bead:=T pbc="F F F"
C      -47.60830000     -32.26530000     -72.73220000
C      -47.22530000     -31.25150000     -71.81200000
C      -45.90290000     -30.78440000     -71.95320000
C      -44.89640000     -31.45370000     -72.69820000
C      -45.36380000     -32.53600000     -73.50260000
C      -46.73800000     -32.89510000     -73.55860000
H      -48.58400000     -32.70630000     -72.71840000
H      -45.54750000     -29.98620000     -71.30850000
H      -44.59520000     -33.11540000     -74.08990000
H      -46.94160000     -33.59620000     -74.37670000
C      -43.45030000     -30.91300000     -72.70970000
H      -43.47580000     -29.82270000     -72.43510000
H      -43.19160000     -31.06360000     -73.75140000
C      -48.20010000     -30.72270000     -70.76200000
H      -48.24170000     -29.66720000     -70.80250000
H      -49.17940000     -31.07720000     -70.95250000
S      -42.10010000     -31.83380000     -71.75330000
S      -47.58430000     -31.14790000     -69.09150000
C      -42.79690000     -32.09770000     -70.06360000
H      -42.13390000     -31.65230000     -69.37650000
H      -43.74090000     -31.60270000     -70.07090000
C      -47.73320000     -32.98280000     -68.98890000
H      -48.46900000     -33.26770000     -69.67730000
H      -48.18950000     -33.28900000     -68.11830000
C      -46.36280000     -33.66000000     -69.16800000
H      -45.67290000     -32.83530000     -69.12970000
H      -46.04970000     -34.28460000     -68.28530000
C      -42.95420000     -33.59170000     -69.71960000
H      -43.49120000     -33.61860000     -68.74410000
H      -42.01400000     -34.04400000     -69.41220000
C      -43.51140000     -34.61120000     -70.67850000
C      -42.67290000     -35.32430000     -71.50320000
C      -44.89980000     -34.94870000     -70.85580000
H      -41.58320000     -35.37340000     -71.50810000
C      -45.04290000     -35.99710000     -71.74290000
C      -46.15010000     -34.54170000     -70.31190000
C      -47.22580000     -35.14220000     -70.92840000
S      -43.53860000     -36.60140000     -72.38090000
S      -46.68550000     -36.34070000     -72.10790000
H      -48.21920000     -34.98300000     -70.57650000
