40
Properties=species:S:1:pos:R:3 #=T CELL(abcABC):=T 1.889726e+02=T 90.00000=T Traj:=T positionsangstrom=T Step:=T 0=T Bead:=T pbc="F F F"
C      -46.49160000     -30.88040000     -73.85870000
C      -46.16480000     -30.46630000     -72.50710000
C      -44.81660000     -30.58410000     -72.14160000
C      -43.82910000     -31.16020000     -72.87290000
C      -44.21390000     -31.76880000     -74.10410000
C      -45.54960000     -31.58170000     -74.60720000
H      -47.46440000     -30.63080000     -74.16410000
H      -44.53060000     -30.16850000     -71.13100000
H      -43.50430000     -32.32800000     -74.69310000
H      -45.68890000     -32.03460000     -75.60110000
C      -42.38500000     -31.18980000     -72.44840000
H      -41.75990000     -30.29090000     -72.79490000
H      -41.99240000     -32.10690000     -72.97540000
C      -47.19210000     -29.84390000     -71.63980000
H      -46.69670000     -29.17020000     -70.89080000
H      -47.76320000     -29.18730000     -72.27540000
S      -42.05820000     -31.25260000     -70.68740000
S      -48.37590000     -30.94010000     -70.84190000
C      -42.38870000     -33.02100000     -70.20970000
H      -41.73830000     -33.62780000     -70.75430000
H      -42.23090000     -33.00910000     -69.13080000
C      -47.50690000     -32.56590000     -70.51350000
H      -48.18260000     -33.09900000     -69.88080000
H      -46.54380000     -32.45100000     -69.92350000
C      -47.10750000     -33.43440000     -71.72840000
H      -47.86600000     -33.35460000     -72.52150000
H      -46.24480000     -33.06970000     -72.23800000
C      -43.87090000     -33.32750000     -70.28230000
H      -44.34180000     -32.83100000     -71.17410000
H      -44.41390000     -32.81600000     -69.47580000
C      -44.29060000     -34.77670000     -70.26320000
C      -43.46800000     -35.76550000     -69.81330000
C      -45.49780000     -35.34220000     -70.78230000
H      -42.51030000     -35.67870000     -69.33080000
C      -45.56120000     -36.71050000     -70.40970000
C      -46.76070000     -34.90160000     -71.32410000
C      -47.66440000     -35.90760000     -71.52600000
S      -44.13200000     -37.36390000     -69.70030000
S      -47.05880000     -37.43610000     -70.86170000
H      -48.61720000     -35.81480000     -72.02140000
