40
Properties=species:S:1:pos:R:3 #=T CELL(abcABC):=T 1.889726e+02=T 90.00000=T Traj:=T positionsangstrom=T Step:=T 0=T Bead:=T pbc="F F F"
C      -47.00070000     -32.24540000     -72.72600000
C      -46.68660000     -31.32750000     -71.70450000
C      -45.40560000     -30.80430000     -71.66140000
C      -44.54700000     -31.01380000     -72.78230000
C      -44.87490000     -31.90550000     -73.79000000
C      -46.12400000     -32.55130000     -73.79770000
H      -47.83400000     -32.84810000     -72.67840000
H      -45.10750000     -30.10280000     -70.91200000
H      -44.12380000     -32.18760000     -74.56340000
H      -46.41990000     -33.30500000     -74.48210000
C      -43.10840000     -30.55100000     -72.66540000
H      -42.96670000     -29.69490000     -72.02230000
H      -42.62970000     -30.34910000     -73.58510000
C      -47.74440000     -30.98700000     -70.69490000
H      -48.12930000     -29.93460000     -70.80250000
H      -48.58540000     -31.68430000     -70.71980000
S      -42.07270000     -32.00400000     -72.05520000
S      -47.14780000     -30.90810000     -68.94100000
C      -42.84430000     -32.53480000     -70.38920000
H      -42.27660000     -32.17020000     -69.51420000
H      -43.85190000     -32.14760000     -70.27200000
C      -47.39150000     -32.72870000     -68.61330000
H      -48.15420000     -33.02040000     -69.31420000
H      -47.74080000     -32.81880000     -67.53510000
C      -46.08150000     -33.53670000     -68.91100000
H      -45.22830000     -32.89940000     -69.23170000
H      -45.78350000     -33.89240000     -67.92020000
C      -42.84410000     -33.99740000     -70.13270000
H      -42.97570000     -34.14490000     -69.03150000
H      -41.84110000     -34.43260000     -70.18200000
C      -43.77100000     -34.89030000     -71.00480000
C      -43.26320000     -35.47440000     -72.09770000
C      -45.19520000     -35.11950000     -70.81400000
H      -42.23900000     -35.27400000     -72.46970000
C      -45.71310000     -36.02560000     -71.76760000
C      -46.22440000     -34.70420000     -69.91000000
C      -47.40860000     -35.38780000     -70.13740000
S      -44.50240000     -36.34910000     -72.99330000
S      -47.28350000     -36.63280000     -71.39280000
H      -48.37430000     -35.24090000     -69.60990000
