40
Properties=species:S:1:pos:R:3 #=T CELL(abcABC):=T 1.889726e+02=T 90.00000=T Traj:=T positionsangstrom=T Step:=T 0=T Bead:=T pbc="F F F"
C      -47.27470000     -34.30250000     -69.36000000
C      -47.22890000     -32.95210000     -68.95690000
C      -46.02190000     -32.46960000     -68.41640000
C      -44.98950000     -33.28810000     -68.01860000
C      -45.19580000     -34.70920000     -68.13950000
C      -46.24680000     -35.11960000     -68.90650000
H      -48.09830000     -34.72000000     -69.93900000
H      -46.05420000     -31.39440000     -68.09180000
H      -44.33760000     -35.33590000     -67.72430000
H      -46.31480000     -36.18510000     -69.12720000
C      -43.76450000     -32.63890000     -67.50080000
H      -43.39580000     -33.24230000     -66.65890000
H      -43.97580000     -31.63010000     -67.15100000
C      -48.32740000     -31.95720000     -69.07300000
H      -49.24660000     -32.46190000     -69.26720000
H      -48.47330000     -31.44040000     -68.09190000
S      -42.43270000     -32.48360000     -68.74350000
S      -48.12420000     -30.66740000     -70.37870000
C      -42.85400000     -33.54930000     -70.28330000
H      -42.10390000     -34.26210000     -70.51760000
H      -43.73340000     -34.18260000     -70.07260000
C      -48.03450000     -31.82030000     -71.83290000
H      -48.50200000     -31.25250000     -72.64280000
H      -48.62660000     -32.71270000     -71.83070000
C      -46.58850000     -32.25950000     -72.11920000
H      -45.99310000     -31.46310000     -72.55890000
H      -46.03690000     -32.26880000     -71.17070000
C      -43.07220000     -32.74610000     -71.56690000
H      -42.12780000     -32.31540000     -71.74710000
H      -43.88330000     -32.02770000     -71.37180000
C      -43.46750000     -33.57830000     -72.72740000
C      -42.49160000     -34.30990000     -73.35500000
C      -44.80480000     -33.74060000     -73.32730000
H      -41.53460000     -34.58990000     -72.99010000
C      -44.77840000     -34.70560000     -74.30700000
C      -46.20570000     -33.39580000     -73.04280000
C      -47.07410000     -34.01500000     -73.93670000
S      -43.17050000     -35.26010000     -74.74210000
S      -46.25810000     -35.03570000     -75.09970000
H      -48.17640000     -33.73180000     -73.97280000
