40
Properties=species:S:1:pos:R:3 #=T CELL(abcABC):=T 1.889726e+02=T 90.00000=T Traj:=T positionsangstrom=T Step:=T 0=T Bead:=T pbc="F F F"
C      -46.71420000     -30.80840000     -73.44660000
C      -46.45450000     -30.33860000     -72.13930000
C      -45.14030000     -30.14220000     -71.68680000
C      -44.04190000     -30.43220000     -72.55180000
C      -44.29110000     -30.98600000     -73.80980000
C      -45.63850000     -31.03880000     -74.31340000
H      -47.76070000     -30.91240000     -73.66550000
H      -44.95390000     -29.70260000     -70.68730000
H      -43.46230000     -31.32740000     -74.39870000
H      -45.80110000     -31.42570000     -75.26060000
C      -42.60410000     -30.18890000     -72.17600000
H      -42.46570000     -29.12530000     -71.99740000
H      -42.03190000     -30.45730000     -73.01550000
C      -47.58790000     -30.12860000     -71.18150000
H      -47.22170000     -29.98380000     -70.17020000
H      -48.22040000     -29.28080000     -71.34300000
S      -42.00630000     -31.17440000     -70.64440000
S      -48.77460000     -31.46070000     -71.21590000
C      -42.49800000     -32.87080000     -71.19810000
H      -42.24840000     -32.95900000     -72.28530000
H      -41.69620000     -33.51730000     -70.67160000
C      -47.86450000     -33.00330000     -70.65380000
H      -48.54780000     -33.70920000     -70.31020000
H      -47.21960000     -32.70050000     -69.87160000
C      -47.19980000     -33.86740000     -71.80960000
H      -48.05140000     -34.13060000     -72.46950000
H      -46.56580000     -33.24780000     -72.43010000
C      -43.85470000     -33.33000000     -70.76380000
H      -44.61420000     -33.01630000     -71.54170000
H      -44.28770000     -32.84620000     -69.88310000
C      -44.07250000     -34.81610000     -70.58410000
C      -43.10820000     -35.61230000     -70.07540000
C      -45.30940000     -35.50120000     -70.79820000
H      -42.04540000     -35.39460000     -69.84060000
C      -45.28240000     -36.84980000     -70.32160000
C      -46.61830000     -35.21030000     -71.32750000
C      -47.43530000     -36.34800000     -71.31640000
S      -43.64170000     -37.28660000     -69.87560000
S      -46.73240000     -37.77940000     -70.67120000
H      -48.45390000     -36.30700000     -71.56320000
