40
Properties=species:S:1:pos:R:3 #=T CELL(abcABC):=T 1.889726e+02=T 90.00000=T Traj:=T positionsangstrom=T Step:=T 0=T Bead:=T pbc="F F F"
C      -46.76460000     -30.74090000     -73.36440000
C      -46.40670000     -30.34360000     -72.07090000
C      -45.05410000     -30.11970000     -71.72820000
C      -44.00310000     -30.37270000     -72.60870000
C      -44.33430000     -31.03680000     -73.80020000
C      -45.69250000     -31.12620000     -74.18610000
H      -47.82870000     -30.94440000     -73.55180000
H      -44.87360000     -29.81160000     -70.70570000
H      -43.50420000     -31.16710000     -74.43610000
H      -45.93050000     -31.52460000     -75.19440000
C      -42.54980000     -30.17160000     -72.26170000
H      -42.24960000     -29.17550000     -71.90400000
H      -41.78100000     -30.51830000     -73.06170000
C      -47.51150000     -30.12860000     -71.05130000
H      -47.07400000     -30.20420000     -70.04820000
H      -48.02530000     -29.12190000     -71.15600000
S      -42.12090000     -31.10910000     -70.71690000
S      -48.84040000     -31.50460000     -71.25550000
C      -42.36050000     -32.94880000     -71.12840000
H      -42.29380000     -33.20990000     -72.16440000
H      -41.64930000     -33.45770000     -70.55730000
C      -48.07060000     -33.10960000     -70.64460000
H      -48.99540000     -33.67200000     -70.26500000
H      -47.44720000     -32.80160000     -69.77520000
C      -47.20640000     -33.82140000     -71.72000000
H      -47.83360000     -34.00600000     -72.58530000
H      -46.39160000     -33.18690000     -72.07690000
C      -43.86160000     -33.32720000     -70.70440000
H      -44.48560000     -32.90320000     -71.50440000
H      -44.04450000     -32.79280000     -69.77850000
C      -44.03230000     -34.81520000     -70.67950000
C      -43.06540000     -35.58370000     -70.13630000
C      -45.25760000     -35.54030000     -70.91620000
H      -42.00470000     -35.28830000     -69.83300000
C      -45.20360000     -36.88920000     -70.49970000
C      -46.63920000     -35.15710000     -71.20050000
C      -47.43220000     -36.27280000     -71.11640000
S      -43.62730000     -37.31290000     -69.99750000
S      -46.69120000     -37.76620000     -70.61490000
H      -48.47560000     -36.13190000     -71.16040000
