40
Properties=species:S:1:pos:R:3 #=T CELL(abcABC):=T 1.889726e+02=T 90.00000=T Traj:=T positionsangstrom=T Step:=T 0=T Bead:=T pbc="F F F"
C      -43.37550000     -34.31840000     -69.54930000
C      -44.67340000     -34.43150000     -69.09090000
C      -45.33530000     -33.20410000     -68.84620000
C      -44.80140000     -31.97420000     -69.20980000
C      -43.47970000     -31.88400000     -69.67740000
C      -42.82080000     -33.06490000     -69.88550000
H      -42.79450000     -35.26510000     -69.78520000
H      -46.30070000     -33.15810000     -68.44840000
H      -43.15510000     -30.87150000     -69.95690000
H      -41.79090000     -33.07730000     -70.31130000
C      -45.69470000     -30.67990000     -69.16190000
H      -45.09190000     -29.83980000     -68.80660000
H      -46.52680000     -30.80050000     -68.45230000
C      -45.41350000     -35.72740000     -68.92450000
H      -44.95830000     -36.51830000     -69.49090000
H      -45.34050000     -36.00410000     -67.81090000
S      -46.35210000     -30.01470000     -70.74390000
S      -47.22550000     -35.66230000     -69.30560000
C      -47.63740000     -31.33600000     -71.27980000
H      -47.53060000     -32.29020000     -70.64690000
H      -48.68690000     -30.81750000     -71.22910000
C      -47.42360000     -36.29490000     -71.02340000
H      -48.45000000     -36.60250000     -71.04630000
H      -46.88020000     -37.16350000     -71.30960000
C      -47.30820000     -35.22820000     -72.07850000
H      -47.85160000     -35.61680000     -72.99290000
H      -47.76800000     -34.37080000     -71.73850000
C      -47.42740000     -31.87670000     -72.65460000
H      -47.72720000     -31.14310000     -73.41500000
H      -48.14010000     -32.73720000     -72.84470000
C      -45.95810000     -32.25010000     -72.96030000
C      -45.03130000     -31.36190000     -73.39710000
C      -45.41200000     -33.65900000     -72.93680000
H      -45.05070000     -30.28790000     -73.49430000
C      -44.08860000     -33.70130000     -73.33800000
C      -45.85190000     -34.93000000     -72.52100000
C      -44.91090000     -35.92980000     -72.59250000
S      -43.41990000     -32.10970000     -73.74080000
S      -43.38750000     -35.28710000     -73.28680000
H      -45.03940000     -37.00770000     -72.44430000
