40
Properties=species:S:1:pos:R:3 #=T CELL(abcABC):=T 1.889726e+02=T 90.00000=T Traj:=T positionsangstrom=T Step:=T 0=T Bead:=T pbc="F F F"
C      -43.68110000     -34.24610000     -69.60460000
C      -44.90950000     -34.24290000     -69.02180000
C      -45.62460000     -33.05520000     -68.89100000
C      -45.20740000     -31.84950000     -69.43130000
C      -43.95710000     -31.92400000     -70.05790000
C      -43.20810000     -33.06820000     -70.17850000
H      -43.18660000     -35.20020000     -69.77570000
H      -46.52020000     -33.13400000     -68.32660000
H      -43.55380000     -31.05220000     -70.58220000
H      -42.25530000     -33.03340000     -70.69490000
C      -45.98590000     -30.56630000     -69.29140000
H      -45.42430000     -29.70670000     -68.85210000
H      -46.84360000     -30.64160000     -68.57800000
C      -45.59370000     -35.45510000     -68.41100000
H      -44.96610000     -36.35890000     -68.49860000
H      -45.66660000     -35.14800000     -67.30630000
S      -46.72890000     -29.90180000     -70.89310000
S      -47.33480000     -35.69590000     -68.87470000
C      -47.54950000     -31.43420000     -71.56830000
H      -47.63070000     -32.25240000     -70.86890000
H      -48.57810000     -31.17750000     -71.66520000
C      -47.01240000     -36.17900000     -70.60450000
H      -47.81140000     -36.91210000     -70.87630000
H      -46.09300000     -36.77090000     -70.53860000
C      -46.97690000     -35.17400000     -71.78420000
H      -47.63120000     -35.68470000     -72.45980000
H      -47.42260000     -34.26210000     -71.50370000
C      -47.14080000     -31.88210000     -72.99340000
H      -47.24800000     -31.00080000     -73.61880000
H      -47.76920000     -32.71370000     -73.33200000
C      -45.71880000     -32.39270000     -73.17080000
C      -44.79590000     -31.52710000     -73.69670000
C      -45.18200000     -33.69920000     -72.95450000
H      -44.92520000     -30.53250000     -74.08960000
C      -43.83310000     -33.77940000     -73.32380000
C      -45.63000000     -34.97800000     -72.36850000
C      -44.63620000     -35.95140000     -72.42280000
S      -43.20830000     -32.25360000     -73.92130000
S      -43.14370000     -35.42100000     -73.16140000
H      -44.58720000     -37.01370000     -72.14950000
