40
Properties=species:S:1:pos:R:3 #=T CELL(abcABC):=T 1.889726e+02=T 90.00000=T Traj:=T positionsangstrom=T Step:=T 0=T Bead:=T pbc="F F F"
C      -44.39650000     -34.73560000     -75.08070000
C      -43.43290000     -34.36410000     -74.14520000
C      -43.08190000     -35.27660000     -73.15250000
C      -43.85620000     -36.43350000     -72.93160000
C      -44.76060000     -36.87750000     -73.91950000
C      -45.04570000     -35.97150000     -75.00760000
H      -44.64910000     -34.12000000     -75.93420000
H      -42.33210000     -34.93400000     -72.37690000
H      -45.34470000     -37.85650000     -73.89840000
H      -45.59020000     -36.27590000     -75.92300000
C      -43.66710000     -37.23270000     -71.65930000
H      -42.67450000     -37.71730000     -71.70040000
H      -44.39830000     -38.04860000     -71.60050000
C      -42.68330000     -33.07840000     -74.31290000
H      -41.65090000     -33.32500000     -74.71700000
H      -43.23010000     -32.45520000     -75.01610000
S      -43.89520000     -36.38910000     -70.02780000
S      -42.37800000     -32.13870000     -72.71140000
C      -45.43210000     -35.52210000     -70.26170000
H      -45.41150000     -35.39080000     -71.34530000
H      -46.33440000     -36.14320000     -70.02430000
C      -44.15070000     -31.61600000     -72.24950000
H      -44.77100000     -32.48240000     -72.37140000
H      -44.41210000     -30.74190000     -72.92340000
C      -44.29260000     -31.06690000     -70.80420000
H      -43.82290000     -31.72660000     -70.06410000
H      -43.77510000     -30.12200000     -70.71200000
C      -45.39540000     -34.25420000     -69.44370000
H      -44.56150000     -33.59930000     -69.81000000
H      -45.04620000     -34.55030000     -68.43680000
C      -46.56820000     -33.36790000     -69.39110000
C      -47.78600000     -33.68690000     -68.82850000
C      -46.63170000     -31.91600000     -69.81800000
H      -48.01560000     -34.68270000     -68.46480000
C      -47.89310000     -31.33420000     -69.56260000
C      -45.73710000     -30.95200000     -70.41130000
C      -46.39190000     -29.76600000     -70.66050000
S      -48.98930000     -32.44890000     -68.85290000
S      -48.00990000     -29.70200000     -70.10140000
H      -46.03580000     -28.86830000     -71.07240000
