40
Properties=species:S:1:pos:R:3 #=T CELL(abcABC):=T 1.889726e+02=T 90.00000=T Traj:=T positionsangstrom=T Step:=T 0=T Bead:=T pbc="F F F"
C      -43.86830000     -33.72630000     -69.09530000
C      -45.24390000     -33.76970000     -68.69070000
C      -45.93080000     -32.55130000     -68.81860000
C      -45.36560000     -31.46870000     -69.48490000
C      -44.01450000     -31.46510000     -69.82830000
C      -43.29180000     -32.62060000     -69.56860000
H      -43.21280000     -34.61360000     -68.98030000
H      -46.99680000     -32.48780000     -68.57370000
H      -43.54010000     -30.59670000     -70.33160000
H      -42.21870000     -32.64980000     -69.87910000
C      -46.26740000     -30.32300000     -69.95030000
H      -45.77830000     -29.33440000     -69.74220000
H      -47.25940000     -30.32460000     -69.44620000
C      -45.85290000     -35.03420000     -68.19370000
H      -45.11270000     -35.82910000     -68.28040000
H      -46.21700000     -35.00810000     -67.18940000
S      -46.77220000     -30.24810000     -71.73290000
S      -47.41310000     -35.44890000     -69.15640000
C      -47.53410000     -31.93600000     -71.94510000
H      -47.00270000     -32.61870000     -71.18430000
H      -48.53060000     -32.02030000     -71.61770000
C      -47.00780000     -36.45600000     -70.64900000
H      -47.89230000     -37.05370000     -70.67180000
H      -46.15010000     -37.07640000     -70.37680000
C      -46.86550000     -35.52760000     -71.90810000
H      -47.28140000     -36.00850000     -72.82220000
H      -47.55340000     -34.69840000     -71.78520000
C      -47.16900000     -32.48250000     -73.30130000
H      -47.55950000     -31.90140000     -74.10960000
H      -47.71830000     -33.42000000     -73.47780000
C      -45.69220000     -32.75860000     -73.41520000
C      -44.76730000     -31.89960000     -73.92780000
C      -45.01140000     -33.98520000     -72.89400000
H      -44.88430000     -30.90860000     -74.33650000
C      -43.66030000     -33.91670000     -73.07570000
C      -45.46110000     -35.19510000     -72.19310000
C      -44.32930000     -35.87260000     -71.76520000
S      -43.13580000     -32.49090000     -73.94760000
S      -42.80230000     -35.21830000     -72.40790000
H      -44.28220000     -36.73950000     -71.11700000
