40
Properties=species:S:1:pos:R:3 #=T CELL(abcABC):=T 1.889726e+02=T 90.00000=T Traj:=T positionsangstrom=T Step:=T 0=T Bead:=T pbc="F F F"
C      -43.93000000     -33.72870000     -68.99060000
C      -45.32640000     -33.72160000     -68.92910000
C      -46.09980000     -32.60390000     -69.31180000
C      -45.59650000     -31.43940000     -69.88640000
C      -44.16870000     -31.37770000     -69.79050000
C      -43.41250000     -32.48770000     -69.38800000
H      -43.36920000     -34.63800000     -68.67270000
H      -47.14960000     -32.84370000     -69.36070000
H      -43.63480000     -30.46050000     -70.10020000
H      -42.33480000     -32.33740000     -69.54460000
C      -46.46800000     -30.31580000     -70.43430000
H      -45.95410000     -29.41560000     -70.23920000
H      -47.45830000     -30.22450000     -69.97700000
C      -45.98300000     -34.99120000     -68.33220000
H      -45.32600000     -35.85520000     -68.28440000
H      -46.20300000     -34.76370000     -67.26160000
S      -46.74840000     -30.16480000     -72.24220000
S      -47.60100000     -35.41770000     -69.07350000
C      -47.60970000     -31.77070000     -72.56890000
H      -47.58950000     -32.35440000     -71.70980000
H      -48.71580000     -31.65920000     -72.71840000
C      -47.06830000     -36.51450000     -70.55710000
H      -47.85200000     -37.25340000     -70.79320000
H      -46.20400000     -37.19620000     -70.27850000
C      -46.73560000     -35.78010000     -71.90770000
H      -46.92390000     -36.51430000     -72.66200000
H      -47.37640000     -34.98300000     -72.11260000
C      -46.97530000     -32.67150000     -73.66680000
H      -47.22970000     -32.30410000     -74.66150000
H      -47.61830000     -33.56130000     -73.68850000
C      -45.54330000     -33.05870000     -73.54100000
C      -44.62860000     -32.26210000     -74.11300000
C      -44.90860000     -34.02520000     -72.62670000
H      -44.94370000     -31.53170000     -74.84700000
C      -43.54320000     -33.73460000     -72.49420000
C      -45.30320000     -35.26020000     -72.01490000
C      -44.17360000     -35.94230000     -71.56830000
S      -42.97590000     -32.44050000     -73.50240000
S      -42.71320000     -35.07170000     -71.76540000
H      -44.32750000     -36.99150000     -71.17000000
