40
Properties=species:S:1:pos:R:3 #=T CELL(abcABC):=T 1.889726e+02=T 90.00000=T Traj:=T positionsangstrom=T Step:=T 0=T Bead:=T pbc="F F F"
C      -43.98430000     -33.52010000     -69.01520000
C      -45.41400000     -33.74330000     -69.02570000
C      -46.26090000     -32.71400000     -69.45350000
C      -45.81610000     -31.43760000     -69.83040000
C      -44.39480000     -31.26320000     -69.93060000
C      -43.55010000     -32.31000000     -69.55090000
H      -43.31470000     -34.27550000     -68.64010000
H      -47.38320000     -32.78300000     -69.29630000
H      -43.94140000     -30.34330000     -70.30640000
H      -42.45650000     -32.16310000     -69.56810000
C      -46.69830000     -30.28190000     -70.27160000
H      -46.21080000     -29.37060000     -69.94300000
H      -47.81890000     -30.42720000     -69.99710000
C      -46.02610000     -34.96510000     -68.45600000
H      -45.25140000     -35.77020000     -68.48680000
H      -46.29430000     -34.83530000     -67.40890000
S      -46.61620000     -30.47350000     -72.16680000
S      -47.65650000     -35.55930000     -69.22270000
C      -47.55380000     -31.98260000     -72.52960000
H      -47.65220000     -32.63640000     -71.58010000
H      -48.50860000     -31.69360000     -72.87520000
C      -47.17720000     -36.50840000     -70.72660000
H      -48.08900000     -36.97980000     -71.03140000
H      -46.41310000     -37.24410000     -70.56520000
C      -46.75630000     -35.51940000     -71.84020000
H      -47.21080000     -35.95870000     -72.80360000
H      -47.35060000     -34.59020000     -71.75500000
C      -46.87580000     -32.66130000     -73.74680000
H      -47.05290000     -31.98060000     -74.59060000
H      -47.36400000     -33.65020000     -73.88650000
C      -45.39550000     -32.86500000     -73.44210000
C      -44.48450000     -31.96330000     -73.82380000
C      -44.77530000     -34.01780000     -72.73720000
H      -44.66820000     -31.00260000     -74.22170000
C      -43.42310000     -33.87770000     -72.69520000
C      -45.28370000     -35.12700000     -71.95210000
C      -44.26480000     -35.80650000     -71.28520000
S      -42.80130000     -32.41290000     -73.46590000
S      -42.68010000     -35.14790000     -71.67440000
H      -44.40530000     -36.68310000     -70.55710000
