40
Properties=species:S:1:pos:R:3 #=T CELL(abcABC):=T 1.889726e+02=T 90.00000=T Traj:=T positionsangstrom=T Step:=T 0=T Bead:=T pbc="F F F"
C      -44.57680000     -33.29990000     -68.78460000
C      -45.88190000     -33.64430000     -69.02260000
C      -46.73200000     -32.70740000     -69.53820000
C      -46.31590000     -31.43000000     -69.99630000
C      -45.02940000     -31.06220000     -69.75080000
C      -44.11410000     -32.00450000     -69.22950000
H      -43.89150000     -33.94610000     -68.31970000
H      -47.69850000     -33.02090000     -69.65970000
H      -44.75410000     -30.02990000     -70.07500000
H      -43.10300000     -31.68090000     -68.98000000
C      -47.33230000     -30.37680000     -70.55190000
H      -47.17790000     -29.45920000     -70.06680000
H      -48.33940000     -30.62670000     -70.38750000
C      -46.44550000     -35.01930000     -68.56920000
H      -45.63320000     -35.71320000     -68.42730000
H      -46.76200000     -34.87080000     -67.52240000
S      -46.90070000     -30.20760000     -72.39630000
S      -47.74640000     -35.88620000     -69.64410000
C      -47.27920000     -31.82830000     -73.14800000
H      -47.41810000     -32.53870000     -72.37330000
H      -48.14450000     -31.80880000     -73.79390000
C      -47.03220000     -36.60220000     -71.15770000
H      -47.88780000     -37.10650000     -71.66330000
H      -46.35680000     -37.42000000     -70.91300000
C      -46.38530000     -35.71380000     -72.28380000
H      -46.52680000     -36.24100000     -73.16490000
H      -46.98200000     -34.83180000     -72.58670000
C      -46.24660000     -32.55660000     -74.01870000
H      -46.00890000     -32.01060000     -74.93090000
H      -46.80880000     -33.46870000     -74.33970000
C      -44.92650000     -32.78770000     -73.31110000
C      -43.91900000     -31.89890000     -73.49710000
C      -44.45230000     -33.96750000     -72.52820000
H      -43.95150000     -30.96870000     -74.07480000
C      -43.15620000     -33.84720000     -72.15220000
C      -44.91840000     -35.29030000     -72.09000000
C      -44.01740000     -36.11620000     -71.49720000
S      -42.42780000     -32.36730000     -72.66050000
S      -42.43600000     -35.27050000     -71.36940000
H      -44.21590000     -37.14980000     -71.14730000
