40
Properties=species:S:1:pos:R:3 #=T CELL(abcABC):=T 1.889726e+02=T 90.00000=T Traj:=T positionsangstrom=T Step:=T 0=T Bead:=T pbc="F F F"
C      -44.40040000     -33.47660000     -69.13140000
C      -45.78020000     -33.78260000     -69.05520000
C      -46.68480000     -32.74230000     -69.33210000
C      -46.19620000     -31.51860000     -69.87990000
C      -44.83560000     -31.27640000     -69.84520000
C      -43.91920000     -32.20570000     -69.47180000
H      -43.68080000     -34.28910000     -68.85650000
H      -47.77670000     -32.86770000     -69.23360000
H      -44.53900000     -30.26650000     -70.15030000
H      -42.90790000     -31.91810000     -69.36000000
C      -47.14390000     -30.44400000     -70.27990000
H      -46.75410000     -29.48550000     -70.04980000
H      -48.06440000     -30.63920000     -69.85380000
C      -46.26540000     -35.13420000     -68.61370000
H      -45.55670000     -35.93490000     -68.74920000
H      -46.44760000     -35.22790000     -67.55910000
S      -47.27530000     -30.14690000     -72.19030000
S      -47.75890000     -35.78450000     -69.49180000
C      -47.33370000     -31.92010000     -72.74210000
H      -47.40030000     -32.46050000     -71.86060000
H      -48.36810000     -32.02110000     -73.30470000
C      -47.14680000     -36.45310000     -71.11760000
H      -48.04790000     -36.86910000     -71.62260000
H      -46.46230000     -37.26310000     -70.85690000
C      -46.49050000     -35.43090000     -72.08730000
H      -46.77900000     -35.68490000     -73.14520000
H      -47.06030000     -34.49750000     -72.04780000
C      -46.25520000     -32.34080000     -73.74150000
H      -46.05670000     -31.51570000     -74.43820000
H      -46.66740000     -33.14330000     -74.34250000
C      -44.87670000     -32.67830000     -73.25540000
C      -43.84400000     -31.84690000     -73.58070000
C      -44.46110000     -33.85960000     -72.51680000
H      -43.82600000     -30.90050000     -74.08320000
C      -43.05620000     -33.95630000     -72.46450000
C      -45.06830000     -35.05560000     -71.95690000
C      -44.18010000     -35.92630000     -71.34280000
S      -42.30860000     -32.54060000     -73.16100000
S      -42.50180000     -35.33180000     -71.55570000
H      -44.45010000     -36.86260000     -70.94460000
