40
Properties=species:S:1:pos:R:3 #=T CELL(abcABC):=T 1.889726e+02=T 90.00000=T Traj:=T positionsangstrom=T Step:=T 0=T Bead:=T pbc="F F F"
C      -44.49570000     -33.36180000     -69.06010000
C      -45.88510000     -33.65590000     -69.05050000
C      -46.78080000     -32.69450000     -69.45460000
C      -46.33290000     -31.45980000     -69.81970000
C      -44.93110000     -31.15370000     -69.83260000
C      -44.05350000     -32.10740000     -69.43810000
H      -43.86840000     -34.28060000     -68.93330000
H      -47.86020000     -33.03760000     -69.44880000
H      -44.64880000     -30.19590000     -70.24770000
H      -43.00110000     -31.81940000     -69.49540000
C      -47.27250000     -30.46820000     -70.37110000
H      -47.26160000     -29.43460000     -70.00440000
H      -48.33110000     -30.73370000     -70.09870000
C      -46.30500000     -35.11470000     -68.63860000
H      -45.39410000     -35.68170000     -68.80320000
H      -46.61030000     -35.07170000     -67.59180000
S      -47.04960000     -30.29590000     -72.17320000
S      -47.78370000     -35.79420000     -69.53970000
C      -47.35840000     -32.03380000     -72.83930000
H      -47.49950000     -32.72270000     -71.99120000
H      -48.22610000     -31.99140000     -73.46390000
C      -47.25350000     -36.33520000     -71.21460000
H      -48.19370000     -36.57230000     -71.68870000
H      -46.67050000     -37.26560000     -71.18260000
C      -46.52040000     -35.26680000     -72.05820000
H      -46.74420000     -35.38330000     -73.12600000
H      -46.89450000     -34.33840000     -71.76150000
C      -46.28860000     -32.54920000     -73.80410000
H      -46.28860000     -31.77210000     -74.61230000
H      -46.58670000     -33.53670000     -74.14920000
C      -44.87010000     -32.75500000     -73.26690000
C      -43.83140000     -31.93280000     -73.58350000
C      -44.39800000     -33.88110000     -72.49680000
H      -43.86630000     -30.98730000     -74.08930000
C      -42.99260000     -33.85940000     -72.24910000
C      -44.99480000     -35.12720000     -71.98070000
C      -44.05040000     -35.97040000     -71.45300000
S      -42.27900000     -32.46580000     -73.00440000
S      -42.43710000     -35.36930000     -71.56870000
H      -44.23330000     -36.98470000     -71.02260000
