40
Properties=species:S:1:pos:R:3 #=T CELL(abcABC):=T 1.889726e+02=T 90.00000=T Traj:=T positionsangstrom=T Step:=T 0=T Bead:=T pbc="F F F"
C      -44.01510000     -33.52660000     -68.65960000
C      -45.36610000     -33.60410000     -68.88110000
C      -46.08540000     -32.53390000     -69.45620000
C      -45.42220000     -31.42140000     -69.97820000
C      -44.02910000     -31.49230000     -70.02910000
C      -43.30630000     -32.44070000     -69.23290000
H      -43.57380000     -34.36140000     -68.09260000
H      -47.11920000     -32.52300000     -69.39480000
H      -43.42230000     -30.75750000     -70.57570000
H      -42.24520000     -32.38790000     -69.14540000
C      -46.27500000     -30.26670000     -70.37420000
H      -45.81800000     -29.23130000     -70.25930000
H      -47.15840000     -30.35420000     -69.75740000
C      -46.05820000     -34.84660000     -68.33650000
H      -45.44900000     -35.76380000     -68.30430000
H      -46.39860000     -34.65120000     -67.29610000
S      -46.68610000     -30.28580000     -72.16100000
S      -47.54870000     -35.49590000     -69.19780000
C      -47.66500000     -31.82320000     -72.31800000
H      -47.79700000     -32.26300000     -71.34460000
H      -48.74160000     -31.41570000     -72.69620000
C      -46.92670000     -36.57110000     -70.59410000
H      -47.74220000     -37.30740000     -70.51960000
H      -46.05790000     -37.06810000     -70.27860000
C      -46.68670000     -35.84260000     -71.91040000
H      -46.67490000     -36.55790000     -72.81030000
H      -47.56210000     -35.10800000     -72.07950000
C      -47.16360000     -32.71560000     -73.42600000
H      -47.33510000     -32.26580000     -74.39770000
H      -47.72340000     -33.70470000     -73.52250000
C      -45.63600000     -32.93880000     -73.35840000
C      -44.75560000     -31.99190000     -73.88510000
C      -44.96880000     -34.02860000     -72.70930000
H      -44.99050000     -31.10160000     -74.45600000
C      -43.57430000     -33.93260000     -72.84360000
C      -45.35520000     -35.18490000     -71.97840000
C      -44.23000000     -35.84410000     -71.37360000
S      -43.05500000     -32.52390000     -73.68570000
S      -42.73340000     -35.08400000     -71.90290000
H      -44.34890000     -36.79150000     -70.83190000
