40
Properties=species:S:1:pos:R:3 #=T CELL(abcABC):=T 1.889726e+02=T 90.00000=T Traj:=T positionsangstrom=T Step:=T 0=T Bead:=T pbc="F F F"
C      -44.63060000     -33.31800000     -68.76610000
C      -45.91310000     -33.77400000     -69.15040000
C      -46.74200000     -32.82100000     -69.79310000
C      -46.32200000     -31.47070000     -70.07490000
C      -45.02860000     -31.13740000     -69.71760000
C      -44.23060000     -32.02150000     -69.01710000
H      -43.95070000     -34.00800000     -68.10020000
H      -47.77180000     -33.10030000     -70.03240000
H      -44.71020000     -30.16150000     -69.85470000
H      -43.32330000     -31.68770000     -68.57710000
C      -47.14020000     -30.47640000     -70.77240000
H      -46.76280000     -29.45470000     -70.54830000
H      -48.28900000     -30.51820000     -70.48070000
C      -46.43600000     -35.16290000     -68.91460000
H      -45.56680000     -35.83240000     -68.76630000
H      -46.94700000     -34.99890000     -67.86830000
S      -47.15490000     -30.59090000     -72.73020000
S      -47.70880000     -35.70320000     -70.11000000
C      -47.34650000     -32.36290000     -73.19270000
H      -47.48030000     -32.95510000     -72.26980000
H      -48.11560000     -32.45140000     -73.92160000
C      -46.72190000     -36.65540000     -71.32240000
H      -47.28650000     -37.41930000     -71.80510000
H      -46.01380000     -37.20060000     -70.67730000
C      -46.12460000     -35.85410000     -72.38490000
H      -46.18020000     -36.43150000     -73.30180000
H      -46.77440000     -35.02010000     -72.70840000
C      -46.18920000     -32.92230000     -74.00940000
H      -46.07580000     -32.47440000     -74.98970000
H      -46.36190000     -34.00010000     -74.17630000
C      -44.87370000     -32.83590000     -73.26030000
C      -43.98510000     -31.78490000     -73.28980000
C      -44.31740000     -33.89320000     -72.47780000
H      -44.06120000     -30.86680000     -73.87360000
C      -43.09900000     -33.60860000     -71.81090000
C      -44.79130000     -35.24440000     -72.10430000
C      -43.90880000     -35.87450000     -71.21770000
S      -42.53230000     -32.02940000     -72.37250000
S      -42.53560000     -34.92930000     -70.79230000
H      -44.05120000     -36.85610000     -70.77060000
