40
Properties=species:S:1:pos:R:3 #=T CELL(abcABC):=T 1.889726e+02=T 90.00000=T Traj:=T positionsangstrom=T Step:=T 0=T Bead:=T pbc="F F F"
C      -45.03660000     -33.34290000     -68.70200000
C      -46.23530000     -33.72530000     -69.29400000
C      -47.00500000     -32.76400000     -69.99720000
C      -46.49600000     -31.47480000     -70.26360000
C      -45.24300000     -31.11200000     -69.76040000
C      -44.52440000     -32.07940000     -69.05030000
H      -44.45950000     -34.04760000     -68.20820000
H      -47.96360000     -33.05260000     -70.40990000
H      -44.78150000     -30.18530000     -70.04250000
H      -43.64250000     -31.82160000     -68.53380000
C      -47.32350000     -30.49010000     -71.08330000
H      -47.04850000     -29.49500000     -70.75010000
H      -48.42030000     -30.59550000     -70.90610000
C      -46.79990000     -35.15610000     -69.01450000
H      -46.08850000     -35.87070000     -68.85500000
H      -47.31460000     -35.20460000     -68.02580000
S      -46.99110000     -30.62900000     -72.90760000
S      -47.79570000     -35.96040000     -70.34580000
C      -47.19190000     -32.42430000     -73.35350000
H      -47.43140000     -33.14580000     -72.48510000
H      -48.08560000     -32.67090000     -74.03020000
C      -46.55370000     -36.91310000     -71.33730000
H      -47.18350000     -37.48010000     -72.00060000
H      -45.97940000     -37.67160000     -70.82890000
C      -45.75310000     -36.07330000     -72.33270000
H      -45.20820000     -36.74700000     -73.01960000
H      -46.36720000     -35.41280000     -72.98230000
C      -45.97170000     -32.99880000     -74.03650000
H      -45.74620000     -32.42580000     -74.91950000
H      -46.07810000     -34.04370000     -74.38440000
C      -44.79170000     -32.88450000     -73.10590000
C      -44.00960000     -31.72440000     -73.16410000
C      -44.31710000     -33.81890000     -72.11370000
H      -44.06090000     -30.97700000     -73.96600000
C      -43.09850000     -33.40710000     -71.55460000
C      -44.62330000     -35.24120000     -71.76980000
C      -43.64020000     -35.81210000     -70.99110000
S      -42.55080000     -31.86510000     -72.16950000
S      -42.30000000     -34.64590000     -70.64460000
H      -43.51480000     -36.76650000     -70.58520000
