40
Properties=species:S:1:pos:R:3 #=T CELL(abcABC):=T 1.889726e+02=T 90.00000=T Traj:=T positionsangstrom=T Step:=T 0=T Bead:=T pbc="F F F"
C      -45.32080000     -32.97160000     -67.81420000
C      -45.44370000     -31.71250000     -68.47640000
C      -44.31620000     -31.35050000     -69.23800000
C      -43.04220000     -31.99160000     -69.15590000
C      -42.93210000     -33.10690000     -68.34240000
C      -44.09170000     -33.61170000     -67.70850000
H      -46.18100000     -33.36010000     -67.37410000
H      -44.28280000     -30.34270000     -69.76770000
H      -41.96780000     -33.66120000     -68.25160000
H      -43.96460000     -34.64220000     -67.25600000
C      -41.77480000     -31.47700000     -69.90200000
H      -40.91700000     -32.11090000     -69.78000000
H      -41.50090000     -30.54080000     -69.44320000
C      -46.63880000     -30.79290000     -68.39960000
H      -47.04770000     -30.80330000     -67.44370000
H      -46.37400000     -29.71790000     -68.62560000
S      -42.22480000     -31.33530000     -71.70940000
S      -48.14940000     -31.10070000     -69.49170000
C      -42.86870000     -32.96150000     -72.17460000
H      -42.00980000     -33.71260000     -72.36570000
H      -43.28870000     -33.48610000     -71.31810000
C      -48.00450000     -32.84740000     -70.21490000
H      -48.84550000     -32.89350000     -70.89780000
H      -48.23560000     -33.55860000     -69.39230000
C      -46.75250000     -33.09660000     -71.02200000
H      -46.44200000     -32.11680000     -71.57920000
H      -45.95700000     -33.17830000     -70.27470000
C      -43.92420000     -32.73000000     -73.38200000
H      -43.25940000     -32.38820000     -74.24350000
H      -44.52050000     -31.92450000     -73.13520000
C      -44.62180000     -34.05240000     -73.66610000
C      -44.12480000     -34.94200000     -74.54640000
C      -45.87070000     -34.57850000     -73.02800000
H      -43.33750000     -34.57300000     -75.14980000
C      -46.19640000     -35.85120000     -73.50030000
C      -46.87470000     -34.14990000     -72.01820000
C      -47.92840000     -35.10710000     -71.95620000
S      -45.13520000     -36.36920000     -74.79340000
S      -47.78580000     -36.44870000     -73.00310000
H      -48.87230000     -35.08240000     -71.42530000
