40
Properties=species:S:1:pos:R:3 #=T CELL(abcABC):=T 1.889726e+02=T 90.00000=T Traj:=T positionsangstrom=T Step:=T 0=T Bead:=T pbc="F F F"
C      -45.30460000     -32.80700000     -67.58050000
C      -45.39370000     -31.68700000     -68.43730000
C      -44.23530000     -31.37200000     -69.13810000
C      -43.04540000     -32.13350000     -69.18510000
C      -43.03420000     -33.26610000     -68.37770000
C      -44.14680000     -33.57670000     -67.55120000
H      -46.11360000     -33.00310000     -66.90480000
H      -44.25680000     -30.42950000     -69.64090000
H      -42.13010000     -33.92390000     -68.37580000
H      -43.91530000     -34.27010000     -66.77220000
C      -41.81680000     -31.70630000     -69.99830000
H      -41.06890000     -32.48200000     -70.08650000
H      -41.41740000     -30.86860000     -69.35990000
C      -46.62150000     -30.83520000     -68.31710000
H      -47.08350000     -31.01340000     -67.32760000
H      -46.33750000     -29.72210000     -68.35970000
S      -42.28950000     -31.15430000     -71.69540000
S      -48.07190000     -31.00100000     -69.61440000
C      -42.89150000     -32.82580000     -72.15620000
H      -42.09350000     -33.35770000     -72.67730000
H      -43.21890000     -33.42640000     -71.32340000
C      -48.04820000     -32.58190000     -70.52760000
H      -48.93260000     -32.55600000     -71.24640000
H      -48.08660000     -33.37010000     -69.83860000
C      -46.82970000     -32.87340000     -71.35190000
H      -46.72950000     -32.11660000     -72.09090000
H      -45.91280000     -32.93070000     -70.74770000
C      -44.10070000     -32.70070000     -73.10470000
H      -43.90010000     -32.15150000     -74.03490000
H      -44.92310000     -32.24010000     -72.64420000
C      -44.64010000     -34.15680000     -73.55130000
C      -44.05930000     -35.06800000     -74.40350000
C      -45.91940000     -34.61240000     -73.07770000
H      -43.09330000     -34.92210000     -74.84030000
C      -46.28030000     -35.86230000     -73.63410000
C      -46.87590000     -34.22470000     -72.10010000
C      -47.90520000     -35.17630000     -71.94240000
S      -45.05100000     -36.50970000     -74.68600000
S      -47.69420000     -36.54360000     -73.05040000
H      -48.76180000     -35.13900000     -71.22520000
