40
Properties=species:S:1:pos:R:3 #=T CELL(abcABC):=T 1.889726e+02=T 90.00000=T Traj:=T positionsangstrom=T Step:=T 0=T Bead:=T pbc="F F F"
C      -45.22820000     -33.33820000     -68.68230000
C      -46.43970000     -33.78000000     -69.24390000
C      -47.18060000     -32.86720000     -70.08880000
C      -46.70130000     -31.55530000     -70.33230000
C      -45.45570000     -31.14150000     -69.67180000
C      -44.80620000     -32.03090000     -68.82340000
H      -44.76800000     -34.00010000     -67.89020000
H      -48.14190000     -33.24930000     -70.40470000
H      -45.08770000     -30.12380000     -69.73450000
H      -43.92500000     -31.67270000     -68.31030000
C      -47.58160000     -30.66100000     -71.10020000
H      -47.47780000     -29.66320000     -70.80110000
H      -48.62160000     -30.96930000     -71.20760000
C      -46.95560000     -35.17510000     -68.90860000
H      -46.11810000     -35.79820000     -68.63940000
H      -47.71990000     -35.03510000     -68.10510000
S      -46.97220000     -30.58950000     -72.98220000
S      -47.78800000     -35.88960000     -70.39500000
C      -47.21390000     -32.42540000     -73.54570000
H      -47.49680000     -32.87530000     -72.64810000
H      -47.89160000     -32.27630000     -74.27960000
C      -46.31450000     -36.74060000     -71.21170000
H      -46.65870000     -37.72910000     -71.53170000
H      -45.59070000     -36.84480000     -70.35330000
C      -45.66040000     -35.92660000     -72.30060000
H      -45.39540000     -36.58500000     -73.11700000
H      -46.44630000     -35.25980000     -72.80670000
C      -45.89710000     -33.05670000     -74.02090000
H      -45.70340000     -32.57270000     -75.05200000
H      -46.16560000     -34.06500000     -74.28630000
C      -44.64590000     -32.92510000     -73.24700000
C      -43.88960000     -31.77370000     -73.19270000
C      -44.10590000     -33.90120000     -72.29450000
H      -44.02840000     -30.84080000     -73.73900000
C      -42.89090000     -33.55220000     -71.76600000
C      -44.45480000     -35.21290000     -71.79370000
C      -43.56710000     -35.70630000     -70.90350000
S      -42.47280000     -31.89750000     -72.09940000
S      -42.21890000     -34.64690000     -70.56720000
H      -43.57960000     -36.59370000     -70.35320000
