40
Properties=species:S:1:pos:R:3 #=T CELL(abcABC):=T 1.889726e+02=T 90.00000=T Traj:=T positionsangstrom=T Step:=T 0=T Bead:=T pbc="F F F"
C      -45.38990000     -33.29840000     -68.69100000
C      -46.62270000     -33.73230000     -69.20650000
C      -47.34920000     -32.87570000     -70.01140000
C      -46.85470000     -31.56280000     -70.32050000
C      -45.64030000     -31.12460000     -69.78040000
C      -45.05970000     -31.97690000     -68.83900000
H      -44.75880000     -33.96480000     -67.99260000
H      -48.32980000     -33.24920000     -70.39760000
H      -45.20070000     -30.11100000     -69.88040000
H      -44.13140000     -31.65130000     -68.39150000
C      -47.63490000     -30.69940000     -71.23900000
H      -47.81460000     -29.63190000     -70.98860000
H      -48.68390000     -31.10320000     -71.24240000
C      -47.17720000     -35.13040000     -68.85310000
H      -46.41950000     -35.77280000     -68.30430000
H      -48.08060000     -35.05870000     -68.24610000
S      -46.90380000     -30.75960000     -72.98740000
S      -47.85860000     -36.03210000     -70.35330000
C      -46.95540000     -32.51490000     -73.45310000
H      -47.13500000     -33.21850000     -72.59760000
H      -47.88860000     -32.89970000     -74.02570000
C      -46.44460000     -36.78880000     -71.31850000
H      -46.75100000     -37.73290000     -71.76780000
H      -45.80100000     -37.09100000     -70.49770000
C      -45.67210000     -35.88280000     -72.31130000
H      -45.34240000     -36.50690000     -73.16780000
H      -46.34450000     -35.18810000     -72.75000000
C      -45.66410000     -32.94120000     -74.20000000
H      -45.38800000     -32.33670000     -75.04020000
H      -45.72850000     -33.96940000     -74.55730000
C      -44.48240000     -32.86730000     -73.23390000
C      -43.74600000     -31.70250000     -73.20090000
C      -43.94160000     -33.89000000     -72.34120000
H      -43.94280000     -30.74150000     -73.62970000
C      -42.80720000     -33.44120000     -71.67450000
C      -44.32890000     -35.19890000     -71.80240000
C      -43.49690000     -35.72440000     -70.86060000
S      -42.40750000     -31.80710000     -72.09260000
S      -42.16170000     -34.55600000     -70.51150000
H      -43.58440000     -36.72900000     -70.43570000
