40
Properties=species:S:1:pos:R:3 #=T CELL(abcABC):=T 1.889726e+02=T 90.00000=T Traj:=T positionsangstrom=T Step:=T 0=T Bead:=T pbc="F F F"
C      -44.80170000     -33.31860000     -67.43820000
C      -45.28980000     -32.09440000     -67.98440000
C      -44.47320000     -31.35410000     -68.79930000
C      -43.19120000     -31.74640000     -69.25490000
C      -42.73330000     -32.94570000     -68.63840000
C      -43.54460000     -33.73580000     -67.81920000
H      -45.35900000     -33.92270000     -66.72100000
H      -44.81860000     -30.38840000     -69.12660000
H      -41.72730000     -33.31120000     -68.89220000
H      -43.18180000     -34.56210000     -67.36770000
C      -42.33930000     -30.88210000     -70.11070000
H      -41.27050000     -30.67800000     -69.79350000
H      -42.83000000     -29.90050000     -70.13250000
C      -46.65330000     -31.56540000     -67.66640000
H      -47.13060000     -32.25340000     -67.05090000
H      -46.57470000     -30.54200000     -67.15590000
S      -42.00470000     -31.72020000     -71.78950000
S      -47.71500000     -31.27580000     -69.22480000
C      -43.31160000     -32.97120000     -72.08980000
H      -42.84900000     -33.88170000     -72.35860000
H      -44.05790000     -33.12030000     -71.33040000
C      -47.54570000     -32.90840000     -70.01480000
H      -48.53870000     -33.31160000     -70.07880000
H      -46.97610000     -33.55630000     -69.42230000
C      -47.02210000     -32.79880000     -71.36490000
H      -47.63520000     -32.13600000     -71.96040000
H      -46.02520000     -32.34440000     -71.44210000
C      -44.20140000     -32.58260000     -73.30100000
H      -43.50660000     -32.24080000     -74.08330000
H      -44.73100000     -31.58000000     -73.01660000
C      -44.96430000     -33.75390000     -73.82320000
C      -44.54190000     -34.49840000     -74.89220000
C      -46.11230000     -34.46250000     -73.18960000
H      -43.79550000     -34.09180000     -75.50980000
C      -46.35690000     -35.68110000     -73.79080000
C      -46.99040000     -34.17970000     -72.04930000
C      -47.78030000     -35.26340000     -71.75780000
S      -45.46720000     -35.93660000     -75.28960000
S      -47.60750000     -36.57260000     -72.94410000
H      -48.50320000     -35.28330000     -70.99860000
