40
Properties=species:S:1:pos:R:3 #=T CELL(abcABC):=T 1.889726e+02=T 90.00000=T Traj:=T positionsangstrom=T Step:=T 0=T Bead:=T pbc="F F F"
C      -46.55320000     -33.58980000     -68.51650000
C      -47.38050000     -34.11980000     -69.50360000
C      -47.79820000     -33.31530000     -70.51900000
C      -47.44990000     -31.96220000     -70.62530000
C      -46.42210000     -31.46110000     -69.79670000
C      -45.97910000     -32.33720000     -68.75750000
H      -46.14140000     -34.10660000     -67.67630000
H      -48.47120000     -33.74400000     -71.28940000
H      -46.12260000     -30.44090000     -69.93510000
H      -45.29670000     -31.92820000     -68.10400000
C      -47.96150000     -31.09380000     -71.74430000
H      -48.21210000     -30.08720000     -71.34170000
H      -48.96990000     -31.42590000     -72.16100000
C      -48.01360000     -35.52120000     -69.41900000
H      -47.55410000     -35.96120000     -68.50290000
H      -49.09780000     -35.40590000     -69.30980000
S      -46.83120000     -30.86290000     -73.23120000
S      -47.77400000     -36.63450000     -70.91040000
C      -46.57080000     -32.55920000     -73.85640000
H      -46.87830000     -33.30180000     -73.10820000
H      -47.22210000     -32.72500000     -74.75430000
C      -45.90360000     -36.60560000     -70.92010000
H      -45.58990000     -37.56330000     -71.35130000
H      -45.62620000     -36.59070000     -69.88780000
C      -45.33870000     -35.42430000     -71.74620000
H      -45.19030000     -35.77840000     -72.79320000
H      -46.11400000     -34.63120000     -71.82570000
C      -45.09060000     -32.98010000     -74.25530000
H      -44.68410000     -32.43320000     -75.10230000
H      -45.25370000     -33.99930000     -74.68960000
C      -44.05080000     -32.75610000     -73.06880000
C      -43.24180000     -31.64380000     -73.20780000
C      -43.53340000     -33.62200000     -72.01140000
H      -43.32830000     -30.93250000     -73.99330000
C      -42.44040000     -33.06000000     -71.35870000
C      -44.02100000     -34.82580000     -71.36780000
C      -43.32970000     -35.14500000     -70.21190000
S      -41.95030000     -31.55800000     -72.06020000
S      -42.03620000     -33.84650000     -69.86580000
H      -43.53230000     -35.96000000     -69.55890000
