40
Properties=species:S:1:pos:R:3 #=T CELL(abcABC):=T 1.889726e+02=T 90.00000=T Traj:=T positionsangstrom=T Step:=T 0=T Bead:=T pbc="F F F"
C      -44.27560000     -33.32820000     -67.42640000
C      -45.17190000     -32.46200000     -68.01630000
C      -44.66490000     -31.52040000     -68.93630000
C      -43.36490000     -31.64060000     -69.34090000
C      -42.41490000     -32.49910000     -68.67240000
C      -42.91500000     -33.34360000     -67.68770000
H      -44.61320000     -34.00330000     -66.60640000
H      -45.22760000     -30.75180000     -69.48270000
H      -41.30490000     -32.54380000     -68.76490000
H      -42.25140000     -33.88780000     -67.04940000
C      -42.68780000     -30.64050000     -70.27750000
H      -41.94820000     -30.14270000     -69.64340000
H      -43.36970000     -29.92520000     -70.69620000
C      -46.67340000     -32.60630000     -67.79070000
H      -46.92510000     -33.61970000     -67.98450000
H      -46.81890000     -32.29550000     -66.71240000
S      -41.92850000     -31.48560000     -71.85320000
S      -47.72160000     -31.54740000     -68.94570000
C      -43.07560000     -32.93540000     -72.13550000
H      -42.40420000     -33.76530000     -72.34440000
H      -43.44420000     -33.12800000     -71.10310000
C      -48.12110000     -32.76010000     -70.23940000
H      -48.94310000     -32.33740000     -70.96050000
H      -48.48290000     -33.72680000     -69.89780000
C      -46.77030000     -33.04970000     -70.98390000
H      -46.41910000     -32.16760000     -71.46760000
H      -45.96350000     -33.40920000     -70.28880000
C      -44.15510000     -32.60980000     -73.21490000
H      -43.68340000     -32.15090000     -74.01620000
H      -44.99430000     -31.91990000     -72.99310000
C      -44.80050000     -33.86140000     -73.60900000
C      -44.38430000     -34.65280000     -74.70270000
C      -46.04370000     -34.50020000     -73.11710000
H      -43.49950000     -34.51370000     -75.27490000
C      -46.47940000     -35.62450000     -73.86280000
C      -46.97180000     -34.16160000     -72.01480000
C      -48.05430000     -34.94680000     -72.04560000
S      -45.44680000     -35.97160000     -75.14430000
S      -48.01870000     -36.28390000     -73.26460000
H      -48.87800000     -34.94160000     -71.37180000
