40
Properties=species:S:1:pos:R:3 #=T CELL(abcABC):=T 1.889726e+02=T 90.00000=T Traj:=T positionsangstrom=T Step:=T 0=T Bead:=T pbc="F F F"
C      -43.85180000     -32.83050000     -66.91260000
C      -44.90310000     -32.47910000     -67.84440000
C      -44.61890000     -31.76870000     -68.99810000
C      -43.24780000     -31.45850000     -69.27240000
C      -42.24730000     -31.91710000     -68.42890000
C      -42.58260000     -32.56110000     -67.21690000
H      -44.13480000     -33.24690000     -65.99770000
H      -45.41790000     -31.39620000     -69.56980000
H      -41.21300000     -31.60510000     -68.50550000
H      -41.78670000     -32.81380000     -66.48240000
C      -43.00370000     -30.63040000     -70.45690000
H      -42.28130000     -29.79160000     -70.28270000
H      -43.89080000     -30.15760000     -70.77470000
C      -46.37390000     -33.00040000     -67.63080000
H      -46.25210000     -34.06650000     -67.95100000
H      -46.62560000     -32.87150000     -66.57750000
S      -42.00490000     -31.55390000     -71.78400000
S      -47.75190000     -32.17560000     -68.53590000
C      -43.10050000     -33.02310000     -72.13230000
H      -42.45280000     -33.80570000     -72.66230000
H      -43.37490000     -33.48510000     -71.25000000
C      -48.02650000     -33.34150000     -70.03400000
H      -48.91500000     -32.81070000     -70.52290000
H      -48.29740000     -34.37370000     -69.67600000
C      -46.85110000     -33.45500000     -71.02510000
H      -46.64070000     -32.49370000     -71.42830000
H      -45.85140000     -33.64600000     -70.51450000
C      -44.32870000     -32.61980000     -72.91060000
H      -44.08340000     -31.83710000     -73.58890000
H      -45.05360000     -32.09090000     -72.21590000
C      -44.99610000     -33.79910000     -73.66410000
C      -44.50530000     -34.15390000     -74.88580000
C      -46.17870000     -34.51770000     -73.26650000
H      -43.68320000     -33.63540000     -75.42760000
C      -46.54550000     -35.43150000     -74.22430000
C      -47.07510000     -34.42220000     -72.14490000
C      -48.11380000     -35.35510000     -72.18610000
S      -45.54290000     -35.44130000     -75.62130000
S      -48.00180000     -36.24750000     -73.63470000
H      -48.95000000     -35.48620000     -71.51990000
