40
Properties=species:S:1:pos:R:3 #=T CELL(abcABC):=T 1.889726e+02=T 90.00000=T Traj:=T positionsangstrom=T Step:=T 0=T Bead:=T pbc="F F F"
C      -43.94800000     -33.03450000     -67.05650000
C      -44.99120000     -32.48260000     -67.83980000
C      -44.70040000     -31.64470000     -68.90250000
C      -43.35550000     -31.61010000     -69.36790000
C      -42.34190000     -32.26510000     -68.62240000
C      -42.62660000     -32.97220000     -67.45230000
H      -44.19910000     -33.56810000     -66.16680000
H      -45.42660000     -31.10340000     -69.51170000
H      -41.26380000     -32.17410000     -68.82320000
H      -41.83850000     -33.47500000     -66.96100000
C      -42.91130000     -30.71950000     -70.53030000
H      -42.16340000     -29.96350000     -70.14050000
H      -43.68850000     -30.21920000     -71.14390000
C      -46.46000000     -32.70610000     -67.44030000
H      -46.65290000     -33.80330000     -67.47020000
H      -46.58830000     -32.36000000     -66.38080000
S      -41.84880000     -31.72970000     -71.82780000
S      -47.85220000     -32.01960000     -68.56690000
C      -42.98540000     -33.08000000     -72.20420000
H      -42.37680000     -33.78200000     -72.79470000
H      -43.28340000     -33.57290000     -71.23580000
C      -47.97950000     -33.22490000     -69.90970000
H      -48.99320000     -33.02540000     -70.15050000
H      -47.92290000     -34.13790000     -69.41740000
C      -46.98530000     -33.13300000     -71.01640000
H      -47.06400000     -32.09840000     -71.48970000
H      -45.89110000     -33.12330000     -70.75110000
C      -44.18460000     -32.59440000     -73.07470000
H      -43.83470000     -32.01300000     -73.90310000
H      -44.88080000     -31.93200000     -72.44570000
C      -44.95480000     -33.74530000     -73.69760000
C      -44.37260000     -34.40260000     -74.72310000
C      -46.22860000     -34.31390000     -73.23650000
H      -43.48310000     -34.11380000     -75.20110000
C      -46.54930000     -35.37180000     -74.09500000
C      -47.12760000     -34.10590000     -72.15530000
C      -48.23260000     -34.98310000     -72.29570000
S      -45.34820000     -35.73470000     -75.32730000
S      -48.11540000     -36.07480000     -73.68810000
H      -49.12710000     -35.14310000     -71.64250000
