40
Properties=species:S:1:pos:R:3 #=T CELL(abcABC):=T 1.889726e+02=T 90.00000=T Traj:=T positionsangstrom=T Step:=T 0=T Bead:=T pbc="F F F"
C      -43.82290000     -32.87580000     -66.92860000
C      -44.87520000     -32.54560000     -67.70760000
C      -44.65060000     -31.65950000     -68.85550000
C      -43.35890000     -31.29090000     -69.21590000
C      -42.29620000     -31.75220000     -68.40320000
C      -42.54330000     -32.47680000     -67.26690000
H      -43.92830000     -33.48180000     -65.96990000
H      -45.57650000     -31.40180000     -69.42860000
H      -41.23010000     -31.43590000     -68.61290000
H      -41.74780000     -32.63730000     -66.60810000
C      -43.09360000     -30.57020000     -70.45440000
H      -42.46080000     -29.83140000     -70.13060000
H      -44.00280000     -30.10520000     -70.81230000
C      -46.29510000     -33.04190000     -67.31470000
H      -46.27620000     -34.08860000     -67.15490000
H      -46.47950000     -32.66250000     -66.32340000
S      -42.14820000     -31.52240000     -71.67620000
S      -47.80220000     -32.62160000     -68.42390000
C      -43.42620000     -32.87470000     -72.04520000
H      -42.83080000     -33.71720000     -72.36230000
H      -44.04170000     -33.08150000     -71.13390000
C      -47.74110000     -33.84590000     -69.84580000
H      -48.73370000     -33.84120000     -70.29800000
H      -47.60600000     -34.88310000     -69.37130000
C      -46.66550000     -33.65040000     -70.93630000
H      -46.80740000     -32.67580000     -71.39090000
H      -45.62830000     -33.69530000     -70.57100000
C      -44.44020000     -32.35210000     -73.10580000
H      -43.83990000     -31.56250000     -73.71590000
H      -45.21320000     -31.81210000     -72.60860000
C      -45.06680000     -33.48600000     -73.89950000
C      -44.81920000     -33.70070000     -75.26740000
C      -46.10580000     -34.38020000     -73.33920000
H      -44.22510000     -33.04990000     -75.86180000
C      -46.50330000     -35.29010000     -74.33040000
C      -46.87780000     -34.57690000     -72.15000000
C      -47.67330000     -35.69980000     -72.10760000
S      -45.77920000     -35.01300000     -75.86230000
S      -47.68220000     -36.50880000     -73.67760000
H      -48.28650000     -36.05860000     -71.28130000
