40
Properties=species:S:1:pos:R:3 #=T CELL(abcABC):=T 1.889726e+02=T 90.00000=T Traj:=T positionsangstrom=T Step:=T 0=T Bead:=T pbc="F F F"
C      -47.82690000     -33.13630000     -69.60420000
C      -47.92370000     -34.19710000     -70.57110000
C      -47.77770000     -33.97120000     -71.95570000
C      -47.52070000     -32.62630000     -72.43360000
C      -47.23480000     -31.60240000     -71.46920000
C      -47.48470000     -31.86700000     -70.10260000
H      -47.85220000     -33.41310000     -68.52480000
H      -47.83200000     -34.76090000     -72.71770000
H      -47.01700000     -30.59710000     -71.77700000
H      -47.31220000     -31.15290000     -69.24390000
C      -47.51640000     -32.49450000     -73.87890000
H      -47.93920000     -31.59670000     -74.19870000
H      -47.90470000     -33.38110000     -74.30190000
C      -48.31570000     -35.61500000     -70.20670000
H      -48.51120000     -35.78540000     -69.11860000
H      -49.28990000     -35.88520000     -70.64050000
S      -45.71470000     -32.35630000     -74.54530000
S      -47.07100000     -36.99590000     -70.78190000
C      -44.96720000     -34.00490000     -74.17380000
H      -45.56000000     -34.55880000     -73.56430000
H      -44.90450000     -34.60320000     -75.10160000
C      -45.59040000     -36.29700000     -69.97000000
H      -44.82240000     -37.11910000     -70.01830000
H      -45.81920000     -36.02660000     -68.92610000
C      -44.98470000     -35.23930000     -70.89800000
H      -44.24240000     -35.61290000     -71.48150000
H      -45.72930000     -35.11490000     -71.64460000
C      -43.61470000     -33.82480000     -73.58050000
H      -42.88010000     -33.53380000     -74.29510000
H      -43.37290000     -34.77940000     -73.10010000
C      -43.30440000     -32.80920000     -72.35520000
C      -42.33670000     -31.80490000     -72.48160000
C      -43.67920000     -32.94980000     -71.00680000
H      -41.78130000     -31.62040000     -73.40410000
C      -43.13760000     -31.98140000     -70.13130000
C      -44.45760000     -33.95500000     -70.27000000
C      -44.54620000     -33.72230000     -68.91940000
S      -41.99230000     -30.95760000     -70.97880000
S      -43.55960000     -32.34660000     -68.43780000
H      -45.00540000     -34.37460000     -68.23340000
