40
Properties=species:S:1:pos:R:3 #=T CELL(abcABC):=T 1.889726e+02=T 90.00000=T Traj:=T positionsangstrom=T Step:=T 0=T Bead:=T pbc="F F F"
C      -47.49110000     -33.00150000     -70.16230000
C      -47.85050000     -34.11680000     -70.98830000
C      -47.65190000     -34.03470000     -72.36290000
C      -47.20410000     -32.78800000     -72.96070000
C      -47.08040000     -31.66430000     -72.17920000
C      -47.12770000     -31.73570000     -70.80800000
H      -47.39370000     -33.05750000     -69.09180000
H      -47.84600000     -34.89260000     -72.98220000
H      -46.80580000     -30.69630000     -72.59790000
H      -46.92740000     -30.76100000     -70.33260000
C      -46.85380000     -32.67780000     -74.45410000
H      -47.31790000     -31.76410000     -74.85370000
H      -47.10740000     -33.56190000     -75.08920000
C      -48.39700000     -35.30230000     -70.24930000
H      -48.45110000     -35.14680000     -69.14130000
H      -49.43570000     -35.49900000     -70.65910000
S      -45.00720000     -32.43920000     -74.60400000
S      -47.40100000     -36.87350000     -70.56410000
C      -44.36320000     -34.05500000     -74.14460000
H      -45.25640000     -34.63970000     -73.69380000
H      -44.08900000     -34.54080000     -75.10090000
C      -45.73670000     -36.50500000     -69.67440000
H      -45.24630000     -37.44130000     -69.52870000
H      -46.01830000     -36.08150000     -68.69660000
C      -44.72020000     -35.62990000     -70.49800000
H      -43.76890000     -36.15770000     -70.45950000
H      -44.94820000     -35.61960000     -71.55340000
C      -43.16340000     -33.99740000     -73.16190000
H      -42.29930000     -33.75240000     -73.79460000
H      -43.05740000     -34.98730000     -72.66140000
C      -43.25690000     -32.92620000     -72.13970000
C      -42.84450000     -31.61340000     -72.37110000
C      -43.75920000     -33.12650000     -70.76080000
H      -42.19650000     -31.17660000     -73.09370000
C      -43.61730000     -31.99280000     -69.91500000
C      -44.28970000     -34.23720000     -69.97630000
C      -44.43050000     -33.95180000     -68.65550000
S      -42.86490000     -30.63470000     -70.81470000
S      -44.10800000     -32.22620000     -68.19030000
H      -44.79030000     -34.51480000     -67.79890000
