40
Properties=species:S:1:pos:R:3 #=T CELL(abcABC):=T 1.889726e+02=T 90.00000=T Traj:=T positionsangstrom=T Step:=T 0=T Bead:=T pbc="F F F"
C      -47.82040000     -33.11100000     -69.66170000
C      -48.06220000     -34.18940000     -70.63660000
C      -47.80940000     -34.04500000     -72.04620000
C      -47.33730000     -32.76190000     -72.45580000
C      -47.28900000     -31.67540000     -71.52070000
C      -47.56280000     -31.88730000     -70.17070000
H      -48.12630000     -33.37480000     -68.62230000
H      -47.91460000     -34.98350000     -72.64190000
H      -47.13080000     -30.66910000     -71.97060000
H      -47.45800000     -31.00380000     -69.52650000
C      -47.18970000     -32.50160000     -73.95230000
H      -47.61310000     -31.44050000     -74.05010000
H      -47.85330000     -33.12840000     -74.56230000
C      -48.47950000     -35.56080000     -70.04670000
H      -48.32850000     -35.69100000     -68.95890000
H      -49.53580000     -35.79940000     -70.37830000
S      -45.48440000     -32.54900000     -74.84670000
S      -47.42940000     -36.87420000     -70.73220000
C      -44.58430000     -34.00210000     -74.05330000
H      -45.20070000     -34.24180000     -73.13990000
H      -44.43890000     -34.87320000     -74.79580000
C      -45.72820000     -36.39920000     -70.03110000
H      -45.30050000     -37.42300000     -69.99680000
H      -45.82800000     -36.02590000     -69.02450000
C      -44.80160000     -35.40530000     -70.85110000
H      -43.95480000     -36.01440000     -71.40040000
H      -45.49480000     -34.95860000     -71.59680000
C      -43.13480000     -33.69360000     -73.54570000
H      -42.62080000     -33.18650000     -74.39980000
H      -42.69790000     -34.72440000     -73.47260000
C      -43.04430000     -32.88910000     -72.28420000
C      -42.49850000     -31.63340000     -72.42860000
C      -43.48400000     -33.14240000     -70.91920000
H      -42.14910000     -31.05660000     -73.29780000
C      -43.08580000     -32.09810000     -70.08220000
C      -44.26060000     -34.15840000     -70.18210000
C      -44.37870000     -33.77970000     -68.88550000
S      -42.33120000     -30.74790000     -70.87000000
S      -43.75630000     -32.20220000     -68.39950000
H      -44.89650000     -34.37890000     -68.16150000
