40
Properties=species:S:1:pos:R:3 #=T CELL(abcABC):=T 1.889726e+02=T 90.00000=T Traj:=T positionsangstrom=T Step:=T 0=T Bead:=T pbc="F F F"
C      -43.58600000     -33.73600000     -67.40400000
C      -44.70950000     -33.13400000     -67.92670000
C      -44.58570000     -31.99940000     -68.77620000
C      -43.31470000     -31.60790000     -69.26200000
C      -42.18380000     -32.27020000     -68.72220000
C      -42.35690000     -33.25340000     -67.78440000
H      -43.77720000     -34.59050000     -66.75940000
H      -45.48730000     -31.44150000     -69.09510000
H      -41.15480000     -31.92840000     -68.86670000
H      -41.45380000     -33.79940000     -67.24870000
C      -43.13140000     -30.32160000     -70.05410000
H      -42.38980000     -29.64200000     -69.70450000
H      -44.12260000     -29.71910000     -70.09460000
C      -46.02790000     -33.50800000     -67.22980000
H      -46.18000000     -34.58750000     -67.00880000
H      -46.17840000     -32.91000000     -66.39010000
S      -42.68200000     -30.75830000     -71.78770000
S      -47.71210000     -33.19310000     -68.13790000
C      -43.80020000     -32.22980000     -72.26500000
H      -43.15760000     -32.66410000     -72.97850000
H      -43.79260000     -33.06030000     -71.47360000
C      -47.59360000     -34.36940000     -69.53650000
H      -48.53700000     -34.46380000     -70.03390000
H      -47.36680000     -35.35590000     -69.13120000
C      -46.63420000     -33.93130000     -70.72740000
H      -47.02880000     -32.93260000     -70.84460000
H      -45.66210000     -33.76580000     -70.32470000
C      -45.17030000     -31.80490000     -72.80140000
H      -45.17630000     -30.80720000     -73.37490000
H      -45.81840000     -31.76490000     -71.89320000
C      -45.59970000     -32.92370000     -73.72470000
C      -45.04190000     -33.07620000     -74.96120000
C      -46.39940000     -34.08120000     -73.34570000
H      -44.58010000     -32.33700000     -75.53110000
C      -46.61750000     -34.91990000     -74.47520000
C      -46.76280000     -34.63260000     -72.05140000
C      -47.06650000     -36.03190000     -72.20100000
S      -45.67950000     -34.44910000     -75.84700000
S      -47.20140000     -36.52970000     -73.88610000
H      -47.50950000     -36.65520000     -71.39170000
