40
Properties=species:S:1:pos:R:3 #=T CELL(abcABC):=T 1.889726e+02=T 90.00000=T Traj:=T positionsangstrom=T Step:=T 0=T Bead:=T pbc="F F F"
C      -44.09190000     -34.76150000     -74.80550000
C      -43.16120000     -34.32600000     -73.83650000
C      -43.06450000     -35.08870000     -72.65830000
C      -43.63410000     -36.37640000     -72.57300000
C      -44.36490000     -36.86580000     -73.62780000
C      -44.64290000     -36.07200000     -74.73300000
H      -44.20460000     -34.12770000     -75.79420000
H      -42.54250000     -34.73690000     -71.79740000
H      -44.67730000     -37.86370000     -73.60600000
H      -45.29270000     -36.59740000     -75.50470000
C      -43.39830000     -37.26310000     -71.36400000
H      -42.43960000     -36.94720000     -70.99220000
H      -43.40740000     -38.32580000     -71.64110000
C      -42.37730000     -33.02610000     -73.99350000
H      -41.29590000     -33.23000000     -74.14540000
H      -42.68930000     -32.45640000     -74.95620000
S      -44.75750000     -36.90540000     -70.20990000
S      -42.40020000     -32.01390000     -72.48320000
C      -45.49820000     -35.31440000     -70.69260000
H      -44.96610000     -34.81850000     -71.55240000
H      -46.49430000     -35.55950000     -71.01380000
C      -44.12060000     -31.62030000     -72.05150000
H      -44.83280000     -32.42270000     -72.23940000
H      -44.55570000     -30.77660000     -72.58590000
C      -44.21200000     -31.23090000     -70.59980000
H      -43.84020000     -32.09800000     -70.01560000
H      -43.39190000     -30.45830000     -70.38130000
C      -45.61990000     -34.34000000     -69.46970000
H      -44.60130000     -33.98760000     -69.33720000
H      -45.97130000     -34.82330000     -68.54470000
C      -46.65980000     -33.27620000     -69.71590000
C      -47.95940000     -33.67830000     -69.56070000
C      -46.57000000     -31.86890000     -69.88160000
H      -48.20230000     -34.72010000     -69.50000000
C      -47.86900000     -31.29940000     -69.80720000
C      -45.62720000     -30.85600000     -70.20910000
C      -46.10430000     -29.59670000     -70.28450000
S      -49.14730000     -32.43090000     -69.59070000
S      -47.89760000     -29.56130000     -70.14010000
H      -45.59860000     -28.73250000     -70.71060000
