40
Properties=species:S:1:pos:R:3 #=T CELL(abcABC):=T 1.889726e+02=T 90.00000=T Traj:=T positionsangstrom=T Step:=T 0=T Bead:=T pbc="F F F"
C      -43.56890000     -33.91430000     -67.47990000
C      -44.73080000     -33.20230000     -67.78840000
C      -44.65930000     -32.07610000     -68.62310000
C      -43.39400000     -31.54970000     -69.07270000
C      -42.22400000     -32.28780000     -68.62460000
C      -42.32860000     -33.39160000     -67.82540000
H      -43.58930000     -34.82860000     -66.82150000
H      -45.58870000     -31.55530000     -68.87330000
H      -41.21650000     -31.89330000     -68.98200000
H      -41.43450000     -34.02020000     -67.53550000
C      -43.30030000     -30.32500000     -69.96010000
H      -42.72270000     -29.52000000     -69.49650000
H      -44.28720000     -29.82860000     -70.14390000
C      -46.12990000     -33.68730000     -67.31570000
H      -46.12150000     -34.80490000     -67.37510000
H      -46.09410000     -33.49430000     -66.22440000
S      -42.57380000     -30.63320000     -71.67770000
S      -47.59440000     -33.22010000     -68.23360000
C      -43.59290000     -32.12490000     -72.22990000
H      -42.97310000     -32.68970000     -72.96920000
H      -43.88850000     -32.73490000     -71.43210000
C      -47.64910000     -34.34390000     -69.72320000
H      -48.74410000     -34.47380000     -69.99680000
H      -47.29490000     -35.30750000     -69.34650000
C      -46.77600000     -33.71660000     -70.77020000
H      -46.95090000     -32.64040000     -71.03900000
H      -45.70680000     -33.68350000     -70.50700000
C      -44.94350000     -31.77020000     -73.05890000
H      -44.85110000     -30.91280000     -73.62810000
H      -45.66250000     -31.42280000     -72.32560000
C      -45.48680000     -32.93000000     -73.84570000
C      -45.37060000     -32.98650000     -75.21580000
C      -46.05360000     -34.18190000     -73.29970000
H      -44.94960000     -32.21520000     -75.79830000
C      -46.17390000     -35.13390000     -74.25130000
C      -46.80330000     -34.50190000     -72.06940000
C      -47.57580000     -35.68780000     -72.24490000
S      -45.80170000     -34.57380000     -75.85190000
S      -47.21120000     -36.51880000     -73.78250000
H      -48.14650000     -36.13860000     -71.45580000
