40
Properties=species:S:1:pos:R:3 #=T CELL(abcABC):=T 1.889726e+02=T 90.00000=T Traj:=T positionsangstrom=T Step:=T 0=T Bead:=T pbc="F F F"
C      -47.87570000     -32.77670000     -70.81150000
C      -47.63040000     -33.94840000     -71.64110000
C      -46.89270000     -33.75050000     -72.80320000
C      -46.32750000     -32.54300000     -73.21250000
C      -46.55440000     -31.46780000     -72.41020000
C      -47.33050000     -31.54160000     -71.19320000
H      -48.45470000     -32.82320000     -69.83470000
H      -46.82690000     -34.62770000     -73.41940000
H      -46.25350000     -30.51370000     -72.81760000
H      -47.54670000     -30.73120000     -70.54110000
C      -45.52220000     -32.45250000     -74.50220000
H      -45.06180000     -31.51410000     -74.47850000
H      -46.09480000     -32.49530000     -75.46900000
C      -48.17180000     -35.30120000     -71.25280000
H      -48.76530000     -35.33560000     -70.31310000
H      -48.84110000     -35.57110000     -72.11060000
S      -44.20460000     -33.84160000     -74.72460000
S      -46.92830000     -36.62420000     -71.24960000
C      -43.96290000     -34.87420000     -73.22380000
H      -44.87430000     -34.96160000     -72.57780000
H      -43.69420000     -35.83370000     -73.50840000
C      -45.99020000     -36.39610000     -69.58420000
H      -45.69400000     -37.42930000     -69.38750000
H      -46.68060000     -35.95700000     -68.78700000
C      -44.69850000     -35.54110000     -69.67790000
H      -44.01500000     -36.00910000     -68.97430000
H      -44.25340000     -35.66610000     -70.63570000
C      -42.93430000     -34.23610000     -72.30480000
H      -41.99870000     -33.94770000     -72.81710000
H      -42.56900000     -34.98430000     -71.60160000
C      -43.40170000     -33.00530000     -71.50050000
C      -43.13570000     -31.71730000     -71.90960000
C      -44.21830000     -33.02960000     -70.29580000
H      -42.53260000     -31.51020000     -72.81780000
C      -44.36350000     -31.71610000     -69.79740000
C      -44.65900000     -34.03790000     -69.36120000
C      -45.24200000     -33.47170000     -68.25600000
S      -43.65520000     -30.54090000     -70.78380000
S      -45.04210000     -31.75530000     -68.17270000
H      -45.55640000     -34.12010000     -67.48170000
