40
Properties=species:S:1:pos:R:3 #=T CELL(abcABC):=T 1.889726e+02=T 90.00000=T Traj:=T positionsangstrom=T Step:=T 0=T Bead:=T pbc="F F F"
C      -48.04470000     -32.57900000     -71.46580000
C      -47.59180000     -33.86530000     -71.93090000
C      -46.56300000     -33.91570000     -72.86260000
C      -45.92510000     -32.73750000     -73.30450000
C      -46.40330000     -31.51150000     -72.92890000
C      -47.50750000     -31.40700000     -72.04100000
H      -48.77580000     -32.46540000     -70.67580000
H      -46.21350000     -34.96140000     -73.07530000
H      -46.02410000     -30.57290000     -73.30010000
H      -47.76210000     -30.39110000     -71.69310000
C      -44.75460000     -32.84690000     -74.29090000
H      -44.07150000     -32.08900000     -74.02500000
H      -45.04040000     -32.63330000     -75.38840000
C      -48.10330000     -35.04330000     -71.10730000
H      -48.22780000     -34.80770000     -70.07020000
H      -49.15020000     -35.34350000     -71.32180000
S      -43.86090000     -34.45760000     -74.34770000
S      -46.87640000     -36.49470000     -71.28610000
C      -43.52660000     -35.00260000     -72.62770000
H      -44.46250000     -35.06390000     -72.02750000
H      -43.09440000     -35.99250000     -72.71420000
C      -46.00200000     -36.46730000     -69.60430000
H      -45.56390000     -37.43610000     -69.46820000
H      -46.82540000     -36.32240000     -68.89170000
C      -44.97160000     -35.36830000     -69.38170000
H      -44.61120000     -35.45830000     -68.33640000
H      -44.05030000     -35.62680000     -69.96360000
C      -42.55480000     -34.15160000     -71.84000000
H      -41.70130000     -33.91690000     -72.52630000
H      -42.03960000     -34.87190000     -71.14940000
C      -43.13600000     -32.97720000     -71.10420000
C      -42.60080000     -31.77890000     -71.36550000
C      -44.32500000     -33.00540000     -70.20650000
H      -41.84500000     -31.44840000     -71.93730000
C      -44.57440000     -31.70450000     -69.76980000
C      -45.26010000     -33.90240000     -69.50630000
C      -46.14580000     -33.23870000     -68.68860000
S      -43.66950000     -30.44810000     -70.62360000
S      -45.87710000     -31.50510000     -68.66340000
H      -46.79190000     -33.68710000     -67.88130000
