40
Properties=species:S:1:pos:R:3 #=T CELL(abcABC):=T 1.889726e+02=T 90.00000=T Traj:=T positionsangstrom=T Step:=T 0=T Bead:=T pbc="F F F"
C      -44.63800000     -34.60680000     -67.50250000
C      -43.72520000     -34.06870000     -68.40190000
C      -43.46290000     -34.69550000     -69.53400000
C      -43.95110000     -35.98450000     -69.82820000
C      -44.96880000     -36.56520000     -68.95340000
C      -45.29260000     -35.81290000     -67.85530000
H      -44.87190000     -34.12820000     -66.59440000
H      -42.75990000     -34.36380000     -70.27050000
H      -45.59300000     -37.41460000     -69.33520000
H      -46.02910000     -36.26030000     -67.16320000
C      -43.48530000     -36.76250000     -71.07990000
H      -44.10930000     -37.65240000     -71.22340000
H      -42.47860000     -37.06700000     -70.97910000
C      -43.07420000     -32.80970000     -68.01560000
H      -43.77890000     -32.34330000     -67.29380000
H      -42.05880000     -33.06430000     -67.53680000
S      -43.56790000     -35.81590000     -72.69280000
S      -42.46240000     -31.61970000     -69.28510000
C      -45.35250000     -35.80580000     -72.90980000
H      -45.63400000     -35.44620000     -74.01800000
H      -45.73000000     -36.76920000     -72.74250000
C      -44.12120000     -31.09380000     -70.13180000
H      -44.03340000     -30.01890000     -70.22780000
H      -44.86280000     -31.42060000     -69.40760000
C      -44.21690000     -31.75390000     -71.56090000
H      -43.39290000     -31.34410000     -72.14540000
H      -44.03410000     -32.79620000     -71.43840000
C      -46.07640000     -34.87070000     -71.83250000
H      -45.38410000     -34.52720000     -71.06140000
H      -46.83280000     -35.43970000     -71.18650000
C      -46.96250000     -33.86100000     -72.48950000
C      -48.18460000     -34.13490000     -73.03910000
C      -46.61410000     -32.38840000     -72.54930000
H      -48.68780000     -35.13080000     -73.14200000
C      -47.66450000     -31.74770000     -73.21750000
C      -45.53220000     -31.45330000     -72.30550000
C      -45.76370000     -30.18100000     -72.75830000
S      -49.00710000     -32.72840000     -73.76570000
S      -47.42680000     -30.03840000     -73.45390000
H      -45.04770000     -29.37350000     -72.51450000
