40
Properties=species:S:1:pos:R:3 #=T CELL(abcABC):=T 1.889726e+02=T 90.00000=T Traj:=T positionsangstrom=T Step:=T 0=T Bead:=T pbc="F F F"
C      -47.92300000     -32.87110000     -71.73650000
C      -47.46080000     -34.09510000     -72.18960000
C      -46.29600000     -34.14800000     -72.97880000
C      -45.65530000     -32.94860000     -73.35610000
C      -46.17510000     -31.64940000     -72.96160000
C      -47.35250000     -31.69710000     -72.23270000
H      -48.78050000     -32.78440000     -71.05280000
H      -45.95570000     -35.09070000     -73.41530000
H      -45.68610000     -30.73050000     -73.11400000
H      -47.82550000     -30.68730000     -72.01230000
C      -44.47420000     -32.93690000     -74.21990000
H      -43.97000000     -31.98990000     -74.11400000
H      -44.78210000     -32.98590000     -75.21170000
C      -48.13090000     -35.41460000     -71.73080000
H      -48.96990000     -35.36280000     -70.98290000
H      -48.56670000     -35.89030000     -72.59410000
S      -43.12440000     -34.21810000     -74.15940000
S      -46.98780000     -36.77030000     -71.16940000
C      -43.19160000     -35.06890000     -72.55210000
H      -44.19460000     -35.45200000     -72.31580000
H      -42.65780000     -35.99410000     -72.62410000
C      -46.42170000     -36.26330000     -69.41160000
H      -46.12060000     -37.24600000     -69.00690000
H      -47.32890000     -35.90200000     -68.84570000
C      -45.21700000     -35.22690000     -69.47570000
H      -44.66060000     -35.37950000     -68.53460000
H      -44.53270000     -35.51670000     -70.26000000
C      -42.59930000     -34.17250000     -71.43810000
H      -41.57550000     -33.92290000     -71.69380000
H      -42.53450000     -34.81110000     -70.55450000
C      -43.30490000     -32.91960000     -70.91300000
C      -42.83940000     -31.62860000     -71.24040000
C      -44.53860000     -32.81720000     -70.07100000
H      -42.00370000     -31.60060000     -71.95210000
C      -44.86470000     -31.46460000     -69.86150000
C      -45.47030000     -33.77100000     -69.41540000
C      -46.40130000     -33.07280000     -68.69590000
S      -43.83530000     -30.31890000     -70.68250000
S      -46.17980000     -31.29320000     -68.67860000
H      -47.19730000     -33.54040000     -68.09610000
