40
Properties=species:S:1:pos:R:3 #=T CELL(abcABC):=T 1.889726e+02=T 90.00000=T Traj:=T positionsangstrom=T Step:=T 0=T Bead:=T pbc="F F F"
C      -43.70660000     -31.86670000     -74.45670000
C      -44.90940000     -32.60660000     -74.50480000
C      -46.02880000     -31.93440000     -73.96740000
C      -45.89020000     -30.70080000     -73.22400000
C      -44.68160000     -30.01510000     -73.22420000
C      -43.58380000     -30.63190000     -73.82000000
H      -42.84720000     -32.34920000     -74.86490000
H      -46.99170000     -32.44200000     -73.92850000
H      -44.42330000     -29.10540000     -72.60560000
H      -42.53720000     -30.19300000     -73.76180000
C      -47.04960000     -30.08190000     -72.43660000
H      -47.94360000     -30.73350000     -72.44760000
H      -47.28650000     -29.08050000     -72.83030000
C      -44.94480000     -34.00670000     -75.08400000
H      -44.98810000     -33.95830000     -76.17540000
H      -43.97800000     -34.44820000     -75.00840000
S      -46.54860000     -29.85310000     -70.58360000
S      -46.34060000     -35.20240000     -74.78530000
C      -46.24680000     -31.58560000     -70.04380000
H      -46.33300000     -31.52650000     -68.93480000
H      -46.99080000     -32.29950000     -70.41550000
C      -45.78980000     -35.74940000     -73.11180000
H      -44.65770000     -35.81940000     -73.14240000
H      -46.14490000     -36.74980000     -72.92020000
C      -46.17370000     -34.77460000     -71.99890000
H      -45.84680000     -33.65230000     -72.20860000
H      -47.26320000     -34.57530000     -71.85000000
C      -44.86490000     -32.07810000     -70.35800000
H      -44.04910000     -31.37890000     -70.24080000
H      -44.75380000     -32.30520000     -71.48450000
C      -44.48840000     -33.21900000     -69.39630000
C      -43.90780000     -33.00230000     -68.16600000
C      -44.91050000     -34.61120000     -69.59870000
H      -43.57090000     -31.95780000     -67.79530000
C      -44.62840000     -35.36860000     -68.45900000
C      -45.66890000     -35.27390000     -70.60100000
C      -45.89330000     -36.54500000     -70.21280000
S      -43.86070000     -34.44010000     -67.18650000
S      -45.24030000     -36.93010000     -68.59730000
H      -46.45040000     -37.31470000     -70.78250000
