40
Properties=species:S:1:pos:R:3 #=T CELL(abcABC):=T 1.889726e+02=T 90.00000=T Traj:=T positionsangstrom=T Step:=T 0=T Bead:=T pbc="F F F"
C      -47.74480000     -32.99660000     -72.12680000
C      -47.24510000     -34.28280000     -72.22320000
C      -46.18080000     -34.50700000     -73.11830000
C      -45.55970000     -33.50360000     -73.78550000
C      -46.10380000     -32.16930000     -73.70300000
C      -47.22470000     -31.90640000     -72.85490000
H      -48.52750000     -32.84740000     -71.36970000
H      -45.78980000     -35.51430000     -73.24950000
H      -45.55650000     -31.36980000     -74.18750000
H      -47.45390000     -30.89320000     -72.53850000
C      -44.23830000     -33.66890000     -74.49300000
H      -44.11120000     -32.84500000     -75.11840000
H      -44.33260000     -34.45140000     -75.19390000
C      -47.97990000     -35.39130000     -71.49110000
H      -48.66590000     -35.07640000     -70.68550000
H      -48.55440000     -35.96250000     -72.22500000
S      -42.62940000     -33.80190000     -73.55940000
S      -46.72390000     -36.70810000     -70.86840000
C      -43.00300000     -34.75480000     -72.05580000
H      -44.12950000     -34.89330000     -71.94020000
H      -42.54780000     -35.72390000     -72.15740000
C      -46.35910000     -36.10490000     -69.12280000
H      -45.98250000     -37.05780000     -68.63380000
H      -47.31540000     -35.73480000     -68.65690000
C      -45.24460000     -35.10030000     -69.07690000
H      -44.71690000     -35.14180000     -68.14380000
H      -44.45200000     -35.39680000     -69.77520000
C      -42.48180000     -33.93320000     -70.90150000
H      -41.51680000     -33.42780000     -71.17760000
H      -42.28620000     -34.57660000     -70.06470000
C      -43.38590000     -32.76300000     -70.56620000
C      -42.93770000     -31.51350000     -70.96460000
C      -44.74910000     -32.72510000     -70.05070000
H      -41.87210000     -31.37250000     -71.09320000
C      -45.29590000     -31.44420000     -70.18020000
C      -45.58000000     -33.62340000     -69.31580000
C      -46.79750000     -33.01430000     -68.97340000
S      -44.10200000     -30.29010000     -70.74110000
S      -46.80870000     -31.31080000     -69.38350000
H      -47.62880000     -33.44730000     -68.31450000
