40
Properties=species:S:1:pos:R:3 #=T CELL(abcABC):=T 1.889726e+02=T 90.00000=T Traj:=T positionsangstrom=T Step:=T 0=T Bead:=T pbc="F F F"
C      -43.75250000     -31.89700000     -74.33190000
C      -44.94190000     -32.63030000     -74.33880000
C      -46.08030000     -32.01390000     -73.77360000
C      -45.97410000     -30.73810000     -73.28530000
C      -44.84820000     -29.91950000     -73.45500000
C      -43.72620000     -30.58420000     -73.91960000
H      -42.82070000     -32.25380000     -74.78640000
H      -46.97620000     -32.54000000     -73.76130000
H      -44.81110000     -28.84270000     -73.14060000
H      -42.88470000     -29.93110000     -74.19680000
C      -47.15560000     -30.14780000     -72.49420000
H      -47.85480000     -31.01280000     -72.47530000
H      -47.64040000     -29.26850000     -72.98390000
C      -45.08910000     -33.76030000     -75.29850000
H      -45.61750000     -33.31810000     -76.20620000
H      -44.14480000     -34.33010000     -75.56110000
S      -46.65340000     -29.74300000     -70.78880000
S      -46.15330000     -35.11340000     -74.62350000
C      -46.22140000     -31.36250000     -70.01920000
H      -46.51440000     -31.19740000     -68.93880000
H      -46.98590000     -32.03990000     -70.29610000
C      -45.61090000     -35.62950000     -72.98880000
H      -44.50650000     -35.66750000     -72.92250000
H      -45.94870000     -36.63940000     -72.94820000
C      -46.23780000     -34.73610000     -71.83170000
H      -45.82140000     -33.70960000     -71.89650000
H      -47.30520000     -34.71160000     -71.98170000
C      -44.79730000     -31.95110000     -70.15890000
H      -44.14950000     -31.13150000     -69.89670000
H      -44.64880000     -32.10580000     -71.25140000
C      -44.55070000     -33.29600000     -69.36510000
C      -43.80090000     -33.11930000     -68.23630000
C      -45.07370000     -34.61200000     -69.56150000
H      -43.42040000     -32.08040000     -67.94960000
C      -44.75560000     -35.39930000     -68.43010000
C      -45.80920000     -35.37310000     -70.51220000
C      -46.03900000     -36.68460000     -70.13940000
S      -43.52550000     -34.58870000     -67.31310000
S      -45.19650000     -37.11070000     -68.60380000
H      -46.61470000     -37.32130000     -70.83000000
