40
Properties=species:S:1:pos:R:3 #=T CELL(abcABC):=T 1.889726e+02=T 90.00000=T Traj:=T positionsangstrom=T Step:=T 0=T Bead:=T pbc="F F F"
C      -47.84160000     -33.02330000     -72.29710000
C      -47.26500000     -34.29810000     -72.26200000
C      -46.07480000     -34.50200000     -72.92090000
C      -45.53200000     -33.40290000     -73.69630000
C      -46.04020000     -32.10330000     -73.66490000
C      -47.26750000     -31.92150000     -73.00340000
H      -48.74100000     -32.84160000     -71.78580000
H      -45.64200000     -35.49330000     -73.09270000
H      -45.46340000     -31.39000000     -74.25740000
H      -47.76470000     -30.94100000     -73.11520000
C      -44.32190000     -33.71040000     -74.53620000
H      -44.19830000     -32.84290000     -75.25040000
H      -44.37990000     -34.75550000     -74.93690000
C      -47.87060000     -35.46730000     -71.51540000
H      -48.47740000     -35.11280000     -70.68680000
H      -48.56150000     -36.00600000     -72.19370000
S      -42.68860000     -33.78870000     -73.51110000
S      -46.81560000     -36.75370000     -70.84050000
C      -43.02050000     -34.67900000     -71.92550000
H      -44.04210000     -35.01820000     -71.78440000
H      -42.42470000     -35.59650000     -72.01700000
C      -46.36620000     -36.16280000     -69.11100000
H      -46.04780000     -37.00590000     -68.52170000
H      -47.20480000     -35.83740000     -68.61380000
C      -45.19790000     -35.13350000     -69.03550000
H      -44.68630000     -35.30410000     -68.03640000
H      -44.43600000     -35.54960000     -69.67820000
C      -42.49460000     -33.85190000     -70.76940000
H      -41.42620000     -33.59920000     -70.94130000
H      -42.29870000     -34.53460000     -69.95300000
C      -43.27860000     -32.63960000     -70.42660000
C      -42.88280000     -31.42090000     -70.92270000
C      -44.63480000     -32.70190000     -69.95280000
H      -42.01630000     -31.35170000     -71.54590000
C      -45.17370000     -31.42460000     -70.04570000
C      -45.51770000     -33.66670000     -69.34080000
C      -46.79550000     -33.13750000     -69.15030000
S      -44.11960000     -30.19970000     -70.81780000
S      -46.83700000     -31.39370000     -69.52760000
H      -47.74880000     -33.61010000     -68.60720000
