40
Properties=species:S:1:pos:R:3 #=T CELL(abcABC):=T 1.889726e+02=T 90.00000=T Traj:=T positionsangstrom=T Step:=T 0=T Bead:=T pbc="F F F"
C      -47.20430000     -33.14670000     -72.62190000
C      -46.76600000     -34.47810000     -72.49960000
C      -45.60850000     -34.86410000     -73.17320000
C      -44.93950000     -33.93300000     -73.97040000
C      -45.25410000     -32.54290000     -73.88100000
C      -46.50650000     -32.17880000     -73.31110000
H      -48.20650000     -32.92800000     -72.16090000
H      -45.30950000     -35.85010000     -73.07950000
H      -44.58670000     -31.79000000     -74.25870000
H      -46.80160000     -31.14720000     -73.34850000
C      -43.57520000     -34.37060000     -74.56810000
H      -43.41190000     -33.82630000     -75.46280000
H      -43.49940000     -35.48270000     -74.73170000
C      -47.49960000     -35.59760000     -71.68650000
H      -48.11090000     -35.22930000     -70.84220000
H      -48.16260000     -36.15160000     -72.35120000
S      -42.31540000     -33.64490000     -73.51590000
S      -46.49490000     -36.87980000     -70.89380000
C      -42.75350000     -34.37150000     -71.86880000
H      -43.64360000     -35.00490000     -71.96180000
H      -41.94470000     -35.03580000     -71.53260000
C      -46.14230000     -36.18530000     -69.19650000
H      -45.73540000     -37.03950000     -68.62640000
H      -47.06860000     -35.96580000     -68.70280000
C      -45.20680000     -34.94660000     -69.15170000
H      -44.74340000     -34.80910000     -68.15470000
H      -44.29780000     -35.13230000     -69.79710000
C      -42.80000000     -33.27470000     -70.79110000
H      -41.87420000     -32.76290000     -71.04510000
H      -42.68960000     -33.84330000     -69.88010000
C      -43.88370000     -32.25800000     -70.64040000
C      -43.67860000     -30.93120000     -71.00140000
C      -45.18000000     -32.41250000     -69.97480000
H      -42.67310000     -30.54130000     -71.22880000
C      -45.88600000     -31.23190000     -69.82810000
C      -45.83760000     -33.59820000     -69.45070000
C      -47.07300000     -33.26370000     -68.96750000
S      -45.02840000     -29.87630000     -70.42280000
S      -47.45010000     -31.62000000     -69.09510000
H      -47.68190000     -33.87050000     -68.41610000
