40
Properties=species:S:1:pos:R:3 #=T CELL(abcABC):=T 1.889726e+02=T 90.00000=T Traj:=T positionsangstrom=T Step:=T 0=T Bead:=T pbc="F F F"
C      -47.61250000     -33.23250000     -72.75120000
C      -46.97860000     -34.49260000     -72.65790000
C      -45.75990000     -34.71330000     -73.27800000
C      -45.07200000     -33.69890000     -73.96380000
C      -45.64470000     -32.45520000     -73.98740000
C      -46.92520000     -32.23660000     -73.41560000
H      -48.54850000     -33.01950000     -72.36540000
H      -45.26050000     -35.73880000     -73.19200000
H      -45.04830000     -31.59350000     -74.28550000
H      -47.39700000     -31.19870000     -73.38210000
C      -43.63210000     -33.89440000     -74.37100000
H      -43.40150000     -33.19930000     -75.22730000
H      -43.43920000     -34.99190000     -74.57330000
C      -47.69730000     -35.54210000     -71.91650000
H      -48.34390000     -35.12880000     -71.10640000
H      -48.33770000     -36.22840000     -72.52380000
S      -42.27780000     -33.22320000     -73.29670000
S      -46.59350000     -36.79800000     -71.07360000
C      -42.44560000     -34.28990000     -71.79480000
H      -43.33320000     -34.93990000     -71.94030000
H      -41.53450000     -34.97360000     -71.76850000
C      -46.20510000     -36.27460000     -69.37910000
H      -45.87760000     -37.17710000     -68.93140000
H      -47.10410000     -35.98140000     -68.78080000
C      -45.14060000     -35.15930000     -69.15640000
H      -44.61190000     -35.24090000     -68.16340000
H      -44.23310000     -35.29210000     -69.84050000
C      -42.57470000     -33.46380000     -70.49370000
H      -41.60380000     -33.01770000     -70.27080000
H      -42.78220000     -34.20910000     -69.59060000
C      -43.66550000     -32.37650000     -70.34740000
C      -43.44670000     -31.10250000     -70.82030000
C      -44.96020000     -32.61490000     -69.83390000
H      -42.49450000     -30.77920000     -71.29440000
C      -45.75790000     -31.45850000     -69.88660000
C      -45.75410000     -33.78290000     -69.35050000
C      -47.01310000     -33.45800000     -68.89330000
S      -44.86540000     -30.00830000     -70.50170000
S      -47.34390000     -31.73240000     -69.16110000
H      -47.86200000     -34.07170000     -68.38520000
