40
Properties=species:S:1:pos:R:3 #=T CELL(abcABC):=T 1.889726e+02=T 90.00000=T Traj:=T positionsangstrom=T Step:=T 0=T Bead:=T pbc="F F F"
C      -46.62120000     -32.00440000     -74.88410000
C      -47.04530000     -31.51610000     -73.56890000
C      -46.09970000     -30.93920000     -72.77090000
C      -44.78810000     -30.71240000     -73.21370000
C      -44.41730000     -31.10230000     -74.49830000
C      -45.32690000     -31.77890000     -75.34870000
H      -47.30830000     -32.66240000     -75.53440000
H      -46.37700000     -30.77590000     -71.74310000
H      -43.38580000     -31.01420000     -74.88250000
H      -45.01560000     -32.16900000     -76.27960000
C      -43.82820000     -29.89590000     -72.34130000
H      -44.10820000     -28.80950000     -72.62890000
H      -42.77470000     -30.06270000     -72.58480000
C      -48.49260000     -31.77120000     -73.19450000
H      -48.76700000     -31.09410000     -72.35130000
H      -49.23000000     -31.62890000     -73.96070000
S      -44.02350000     -29.79550000     -70.46770000
S      -48.77590000     -33.50160000     -72.90900000
C      -43.37220000     -31.48180000     -69.94710000
H      -42.38520000     -31.69390000     -70.49490000
H      -43.12860000     -31.33090000     -68.85700000
C      -47.67590000     -34.10420000     -71.53520000
H      -48.20350000     -34.96870000     -70.99230000
H      -47.39040000     -33.26670000     -70.82060000
C      -46.28840000     -34.65080000     -72.06810000
H      -46.45830000     -35.22680000     -73.00130000
H      -45.57350000     -33.85840000     -72.40240000
C      -44.37460000     -32.54070000     -70.33340000
H      -44.29030000     -32.68520000     -71.42650000
H      -45.43440000     -32.18970000     -70.15430000
C      -44.06530000     -33.83640000     -69.61340000
C      -43.21240000     -34.05250000     -68.52220000
C      -44.79330000     -35.05960000     -69.92660000
H      -42.81180000     -33.27320000     -67.94720000
C      -44.30410000     -36.12800000     -69.20720000
C      -45.60970000     -35.50640000     -70.98390000
C      -45.78150000     -36.87600000     -71.03630000
S      -43.24550000     -35.68200000     -67.95580000
S      -44.85970000     -37.66560000     -69.80910000
H      -46.42890000     -37.34210000     -71.76320000
