40
Properties=species:S:1:pos:R:3 #=T CELL(abcABC):=T 1.889726e+02=T 90.00000=T Traj:=T positionsangstrom=T Step:=T 0=T Bead:=T pbc="F F F"
C      -47.68620000     -33.16030000     -72.54570000
C      -47.02580000     -34.39870000     -72.67830000
C      -45.74550000     -34.39180000     -73.26990000
C      -45.12240000     -33.23620000     -73.71720000
C      -45.79150000     -31.99480000     -73.55460000
C      -47.07100000     -31.97960000     -72.96120000
H      -48.70750000     -33.06570000     -72.16190000
H      -45.22280000     -35.32270000     -73.36800000
H      -45.38370000     -31.08300000     -74.01130000
H      -47.58790000     -31.04760000     -72.97140000
C      -43.82310000     -33.33760000     -74.36780000
H      -43.78920000     -32.45070000     -75.09730000
H      -43.62540000     -34.29710000     -74.88250000
C      -47.63430000     -35.56340000     -72.01670000
H      -48.27650000     -35.20640000     -71.19330000
H      -48.34510000     -36.02720000     -72.72540000
S      -42.36730000     -33.04530000     -73.19540000
S      -46.53700000     -36.79490000     -71.24950000
C      -42.40530000     -34.31060000     -71.75500000
H      -43.29360000     -34.92310000     -71.87400000
H      -41.50560000     -34.95320000     -71.92020000
C      -46.21910000     -36.47300000     -69.47390000
H      -45.64850000     -37.38200000     -69.05040000
H      -47.15350000     -36.41280000     -68.92460000
C      -45.35050000     -35.24720000     -69.18830000
H      -44.89620000     -35.26520000     -68.08990000
H      -44.50250000     -35.46380000     -69.77900000
C      -42.35350000     -33.63140000     -70.36270000
H      -41.44290000     -32.92580000     -70.48900000
H      -42.22620000     -34.45300000     -69.70450000
C      -43.53390000     -32.72770000     -70.23360000
C      -43.27320000     -31.38890000     -70.56300000
C      -44.95800000     -32.85170000     -69.84800000
H      -42.37330000     -30.94890000     -71.01980000
C      -45.67860000     -31.70500000     -70.01970000
C      -45.83160000     -33.87460000     -69.37750000
C      -47.08650000     -33.44510000     -69.04700000
S      -44.70370000     -30.39160000     -70.58420000
S      -47.33450000     -31.77630000     -69.49060000
H      -48.00740000     -34.02000000     -68.58080000
