40
Properties=species:S:1:pos:R:3 #=T CELL(abcABC):=T 1.889726e+02=T 90.00000=T Traj:=T positionsangstrom=T Step:=T 0=T Bead:=T pbc="F F F"
C      -46.41140000     -31.69800000     -74.85470000
C      -46.91590000     -31.32980000     -73.55890000
C      -46.07500000     -30.51640000     -72.74840000
C      -44.73480000     -30.31580000     -73.10020000
C      -44.22780000     -30.75730000     -74.34630000
C      -45.09720000     -31.37940000     -75.23510000
H      -47.09300000     -32.24860000     -75.56490000
H      -46.54850000     -30.12350000     -71.82020000
H      -43.23730000     -30.47810000     -74.79390000
H      -44.72490000     -31.78670000     -76.16840000
C      -43.95690000     -29.43800000     -72.19720000
H      -44.33010000     -28.40590000     -72.34240000
H      -42.87110000     -29.48300000     -72.47010000
C      -48.34440000     -31.63770000     -73.29070000
H      -48.74350000     -30.95400000     -72.54850000
H      -48.87500000     -31.56140000     -74.20810000
S      -44.23750000     -29.83540000     -70.37810000
S      -48.55520000     -33.48640000     -72.69820000
C      -43.53760000     -31.56250000     -69.95100000
H      -42.53080000     -31.76960000     -70.35120000
H      -43.35030000     -31.43050000     -68.87400000
C      -47.01900000     -33.62260000     -71.72070000
H      -47.38600000     -33.79070000     -70.71730000
H      -46.60800000     -32.66060000     -71.75960000
C      -46.10340000     -34.74930000     -72.31120000
H      -46.56570000     -35.31960000     -73.09920000
H      -45.21990000     -34.28650000     -72.74370000
C      -44.45060000     -32.76380000     -70.27550000
H      -44.35030000     -32.97680000     -71.32650000
H      -45.48750000     -32.48270000     -70.19190000
C      -44.25160000     -34.08460000     -69.65100000
C      -43.45520000     -34.28950000     -68.51930000
C      -44.85470000     -35.30560000     -70.01120000
H      -42.79920000     -33.51700000     -68.28080000
C      -44.56880000     -36.39400000     -69.24990000
C      -45.61480000     -35.72590000     -71.17590000
C      -45.81280000     -37.09030000     -71.25620000
S      -43.29860000     -36.03340000     -68.05730000
S      -45.12050000     -37.87410000     -69.79480000
H      -46.49790000     -37.62500000     -71.86480000
