40
Properties=species:S:1:pos:R:3 #=T CELL(abcABC):=T 1.889726e+02=T 90.00000=T Traj:=T positionsangstrom=T Step:=T 0=T Bead:=T pbc="F F F"
C      -47.02750000     -34.10770000     -74.52480000
C      -46.85750000     -32.70450000     -74.33960000
C      -45.51950000     -32.22470000     -74.30180000
C      -44.41560000     -33.09420000     -74.49280000
C      -44.58620000     -34.42370000     -74.76240000
C      -45.95610000     -34.91630000     -74.71310000
H      -48.09490000     -34.58350000     -74.57190000
H      -45.38480000     -31.17920000     -74.09070000
H      -43.72370000     -35.07670000     -74.96890000
H      -46.10710000     -35.90560000     -74.94300000
C      -42.99080000     -32.54080000     -74.30750000
H      -42.95730000     -31.51840000     -74.57710000
H      -42.19170000     -32.99270000     -74.88670000
C      -48.07570000     -31.83810000     -73.98930000
H      -48.25350000     -31.12450000     -74.75660000
H      -49.02100000     -32.42190000     -73.92110000
S      -42.43610000     -32.71090000     -72.46290000
S      -47.82000000     -30.85660000     -72.39530000
C      -43.61910000     -31.77960000     -71.53100000
H      -43.63300000     -30.70790000     -71.93140000
H      -44.61430000     -32.17280000     -71.67190000
C      -47.91930000     -32.21880000     -71.12820000
H      -47.64850000     -33.17940000     -71.60820000
H      -48.91500000     -32.38180000     -70.69340000
C      -46.90940000     -32.13790000     -69.94850000
H      -46.00800000     -31.65400000     -70.38020000
H      -47.43300000     -31.45260000     -69.23350000
C      -43.43920000     -31.80180000     -69.98280000
H      -44.19660000     -31.15090000     -69.51200000
H      -42.39350000     -31.53240000     -69.65240000
C      -43.75880000     -33.22200000     -69.37120000
C      -42.79590000     -34.11360000     -68.97340000
C      -45.13070000     -33.80370000     -69.05590000
H      -41.70950000     -33.94100000     -68.98970000
C      -44.96550000     -35.12790000     -68.51260000
C      -46.49660000     -33.42670000     -69.29030000
C      -47.36560000     -34.43270000     -68.93330000
S      -43.36520000     -35.61450000     -68.25770000
S      -46.58340000     -35.87880000     -68.29150000
H      -48.40880000     -34.30530000     -68.92950000
