40
Properties=species:S:1:pos:R:3 #=T CELL(abcABC):=T 1.889726e+02=T 90.00000=T Traj:=T positionsangstrom=T Step:=T 0=T Bead:=T pbc="F F F"
C      -47.76460000     -32.84560000     -72.61720000
C      -47.15880000     -34.10830000     -72.86190000
C      -45.89330000     -34.13630000     -73.45470000
C      -45.13310000     -32.99430000     -73.61770000
C      -45.80840000     -31.71680000     -73.34190000
C      -47.10970000     -31.69320000     -72.87950000
H      -48.74810000     -32.87050000     -72.13450000
H      -45.41980000     -35.11390000     -73.45700000
H      -45.25640000     -30.80930000     -73.46930000
H      -47.66670000     -30.76420000     -72.68690000
C      -43.74810000     -33.14100000     -74.21160000
H      -43.64290000     -32.36630000     -74.98700000
H      -43.62860000     -34.07440000     -74.72220000
C      -47.99810000     -35.27480000     -72.36300000
H      -48.51990000     -34.91740000     -71.42320000
H      -48.73420000     -35.64900000     -73.07300000
S      -42.30280000     -32.92340000     -73.11730000
S      -46.98760000     -36.78480000     -71.92600000
C      -42.41330000     -34.43470000     -72.02280000
H      -43.29090000     -34.96780000     -72.35160000
H      -41.56780000     -35.12240000     -72.17110000
C      -46.56010000     -36.47650000     -70.16170000
H      -46.24760000     -37.50180000     -69.77490000
H      -47.49120000     -36.10340000     -69.67810000
C      -45.42040000     -35.49750000     -69.84470000
H      -44.88540000     -35.91520000     -68.95230000
H      -44.72620000     -35.49920000     -70.70350000
C      -42.46780000     -34.04090000     -70.51960000
H      -41.43480000     -33.60150000     -70.26040000
H      -42.68450000     -34.89390000     -69.92150000
C      -43.49020000     -32.94650000     -70.29400000
C      -43.15050000     -31.61410000     -70.45220000
C      -44.84040000     -33.08620000     -69.71870000
H      -42.29230000     -31.18670000     -71.07210000
C      -45.38550000     -31.80450000     -69.44410000
C      -45.80310000     -34.10780000     -69.48700000
C      -46.99870000     -33.62400000     -69.03040000
S      -44.36510000     -30.51210000     -69.91430000
S      -47.01590000     -31.84210000     -68.94520000
H      -47.77280000     -34.24360000     -68.63470000
