40
Properties=species:S:1:pos:R:3 #=T CELL(abcABC):=T 1.889726e+02=T 90.00000=T Traj:=T positionsangstrom=T Step:=T 0=T Bead:=T pbc="F F F"
C      -47.18140000     -32.26200000     -72.44420000
C      -46.96480000     -33.57190000     -73.02610000
C      -45.74970000     -33.78520000     -73.61320000
C      -44.79020000     -32.77900000     -73.81140000
C      -45.08470000     -31.48330000     -73.25890000
C      -46.30860000     -31.20290000     -72.59470000
H      -48.10020000     -32.11330000     -71.85700000
H      -45.54160000     -34.84040000     -73.91350000
H      -44.25340000     -30.76800000     -73.24190000
H      -46.54950000     -30.25090000     -72.06540000
C      -43.47180000     -33.13290000     -74.40220000
H      -43.19800000     -32.29220000     -75.02690000
H      -43.60930000     -34.02890000     -75.06930000
C      -48.00540000     -34.63370000     -72.69700000
H      -48.70800000     -34.35590000     -71.86800000
H      -48.65010000     -34.74370000     -73.57860000
S      -42.14690000     -33.40640000     -73.22000000
S      -47.24660000     -36.35970000     -72.37890000
C      -42.95280000     -34.58260000     -72.04190000
H      -43.99400000     -34.64610000     -72.21940000
H      -42.55800000     -35.61790000     -72.16260000
C      -46.94670000     -36.52000000     -70.58670000
H      -46.76050000     -37.55700000     -70.50500000
H      -47.84640000     -36.31960000     -70.05020000
C      -45.75370000     -35.67440000     -70.16670000
H      -45.36810000     -36.28170000     -69.28790000
H      -45.03610000     -35.71890000     -70.97610000
C      -42.65960000     -34.23020000     -70.53710000
H      -41.60460000     -33.84230000     -70.42410000
H      -42.78710000     -35.17150000     -70.00000000
C      -43.58830000     -33.15860000     -70.01050000
C      -43.15360000     -31.84840000     -69.98780000
C      -45.02220000     -33.30010000     -69.61380000
H      -42.17310000     -31.49820000     -70.17950000
C      -45.48430000     -32.05420000     -69.16800000
C      -46.04990000     -34.27500000     -69.70170000
C      -47.29890000     -33.74100000     -69.33770000
S      -44.34680000     -30.79110000     -69.19010000
S      -47.15370000     -32.03830000     -68.78590000
H      -48.26190000     -34.17130000     -69.41070000
