40
Properties=species:S:1:pos:R:3 #=T CELL(abcABC):=T 1.889726e+02=T 90.00000=T Traj:=T positionsangstrom=T Step:=T 0=T Bead:=T pbc="F F F"
C      -47.23530000     -31.86440000     -72.12940000
C      -47.08550000     -33.12240000     -72.70700000
C      -45.86550000     -33.43120000     -73.34890000
C      -44.81080000     -32.51360000     -73.45230000
C      -44.94430000     -31.30750000     -72.74360000
C      -46.18160000     -30.97810000     -72.22490000
H      -48.11310000     -31.59830000     -71.51210000
H      -45.76330000     -34.36370000     -73.92790000
H      -44.11280000     -30.61180000     -72.65660000
H      -46.27170000     -29.95600000     -71.84350000
C      -43.57380000     -32.83950000     -74.20010000
H      -43.15350000     -31.99060000     -74.80480000
H      -43.63890000     -33.71180000     -74.89310000
C      -48.19190000     -34.13110000     -72.67130000
H      -48.79060000     -33.92820000     -71.81360000
H      -48.76640000     -33.98660000     -73.57300000
S      -42.14470000     -33.17530000     -72.98010000
S      -47.62830000     -35.89020000     -72.68530000
C      -42.59440000     -34.79310000     -72.16830000
H      -43.55710000     -35.14080000     -72.67160000
H      -41.86360000     -35.53810000     -72.34620000
C      -47.01910000     -36.60500000     -71.06400000
H      -46.83350000     -37.63690000     -71.24890000
H      -47.85200000     -36.61250000     -70.33860000
C      -45.79850000     -35.93650000     -70.34140000
H      -45.50120000     -36.55870000     -69.51300000
H      -44.93680000     -35.95530000     -71.02840000
C      -42.70450000     -34.70650000     -70.58520000
H      -41.72770000     -34.58560000     -70.19850000
H      -43.02850000     -35.64820000     -70.32890000
C      -43.59000000     -33.53270000     -70.15430000
C      -43.10060000     -32.25770000     -70.14340000
C      -44.91270000     -33.57870000     -69.69280000
H      -42.09410000     -32.00870000     -70.43290000
C      -45.34670000     -32.37150000     -69.15910000
C      -46.02130000     -34.58650000     -69.82400000
C      -47.18640000     -34.01660000     -69.41530000
S      -44.19340000     -31.10130000     -69.39180000
S      -47.06730000     -32.29650000     -68.86270000
H      -48.16790000     -34.58510000     -69.34030000
