40
Properties=species:S:1:pos:R:3 #=T CELL(abcABC):=T 1.889726e+02=T 90.00000=T Traj:=T positionsangstrom=T Step:=T 0=T Bead:=T pbc="F F F"
C      -47.77370000     -34.28360000     -74.15870000
C      -47.99300000     -33.05790000     -73.45640000
C      -47.10380000     -32.01370000     -73.63280000
C      -45.98500000     -32.20990000     -74.45070000
C      -45.79490000     -33.42890000     -75.09490000
C      -46.70710000     -34.49800000     -74.91770000
H      -48.45140000     -35.16900000     -74.06680000
H      -47.20640000     -31.08420000     -73.01970000
H      -44.99840000     -33.54950000     -75.77730000
H      -46.55730000     -35.44630000     -75.41870000
C      -45.05310000     -31.09310000     -74.63810000
H      -45.46050000     -30.40210000     -75.38020000
H      -44.15160000     -31.40420000     -75.15790000
C      -49.19000000     -32.89090000     -72.56550000
H      -49.27460000     -31.93130000     -72.05980000
H      -50.09900000     -33.24520000     -73.01000000
S      -44.66750000     -30.03890000     -73.11020000
S      -49.01230000     -34.06160000     -71.02500000
C      -43.52630000     -31.08970000     -72.08240000
H      -42.62730000     -31.24100000     -72.57890000
H      -43.38030000     -30.43430000     -71.23220000
C      -47.30850000     -33.78570000     -70.26370000
H      -47.45690000     -33.89830000     -69.18730000
H      -46.97890000     -32.71150000     -70.37620000
C      -46.24320000     -34.81420000     -70.71200000
H      -46.82900000     -35.74110000     -70.81490000
H      -45.89120000     -34.64150000     -71.73100000
C      -44.21350000     -32.43360000     -71.60260000
H      -44.25560000     -33.23490000     -72.35520000
H      -45.30770000     -32.23790000     -71.47840000
C      -43.54790000     -33.02750000     -70.33320000
C      -42.34520000     -32.55910000     -69.82220000
C      -43.98690000     -34.22400000     -69.69180000
H      -41.78860000     -31.61950000     -70.01910000
C      -43.09500000     -34.68670000     -68.67440000
C      -45.16150000     -35.07070000     -69.72890000
C      -45.09920000     -36.08960000     -68.78350000
S      -41.79860000     -33.48100000     -68.50120000
S      -43.68030000     -35.98900000     -67.75840000
H      -45.86030000     -36.87170000     -68.65940000
