40
Properties=species:S:1:pos:R:3 #=T CELL(abcABC):=T 1.889726e+02=T 90.00000=T Traj:=T positionsangstrom=T Step:=T 0=T Bead:=T pbc="F F F"
C      -47.34130000     -31.68220000     -72.24150000
C      -47.19000000     -32.95390000     -72.80940000
C      -45.96220000     -33.19160000     -73.42630000
C      -44.90280000     -32.31360000     -73.42470000
C      -45.07550000     -31.00600000     -72.80590000
C      -46.31060000     -30.75060000     -72.21520000
H      -48.22380000     -31.46510000     -71.62400000
H      -45.74640000     -34.13380000     -73.88680000
H      -44.24390000     -30.31140000     -72.77480000
H      -46.46450000     -29.82740000     -71.63650000
C      -43.60750000     -32.66370000     -74.22810000
H      -43.24640000     -31.66560000     -74.64690000
H      -43.79940000     -33.30330000     -75.03780000
C      -48.32060000     -33.96550000     -72.81350000
H      -49.01800000     -33.80990000     -72.01070000
H      -48.91170000     -33.74340000     -73.76160000
S      -42.15630000     -33.30110000     -73.27650000
S      -47.86200000     -35.77030000     -72.85950000
C      -42.83450000     -34.81500000     -72.42670000
H      -43.94630000     -34.79160000     -72.69860000
H      -42.37250000     -35.67510000     -72.96470000
C      -47.41590000     -36.25600000     -71.17860000
H      -47.46610000     -37.37250000     -71.19390000
H      -48.19950000     -35.90860000     -70.45490000
C      -45.99700000     -35.82100000     -70.72400000
H      -45.65970000     -36.53850000     -69.86810000
H      -45.29100000     -35.80650000     -71.54580000
C      -42.78910000     -34.96040000     -70.86600000
H      -41.79330000     -35.09510000     -70.49080000
H      -43.29990000     -35.88060000     -70.64140000
C      -43.45120000     -33.82150000     -70.08510000
C      -42.76800000     -32.70700000     -69.62990000
C      -44.82480000     -33.68990000     -69.71110000
H      -41.68450000     -32.51030000     -69.75770000
C      -45.10530000     -32.58690000     -68.89910000
C      -46.05540000     -34.43520000     -70.08030000
C      -47.16690000     -33.85820000     -69.48810000
S      -43.72790000     -31.56860000     -68.64940000
S      -46.82490000     -32.30630000     -68.68520000
H      -48.13390000     -34.24670000     -69.51900000
