40
Properties=species:S:1:pos:R:3 #=T CELL(abcABC):=T 1.889726e+02=T 90.00000=T Traj:=T positionsangstrom=T Step:=T 0=T Bead:=T pbc="F F F"
C      -47.45330000     -31.68480000     -71.84560000
C      -47.35710000     -32.19970000     -73.15380000
C      -46.11140000     -32.10240000     -73.82200000
C      -45.08220000     -31.38550000     -73.28190000
C      -45.22670000     -30.78000000     -71.97180000
C      -46.38000000     -30.99760000     -71.29180000
H      -48.44410000     -31.72340000     -71.33200000
H      -46.06460000     -32.61580000     -74.74660000
H      -44.37540000     -30.28400000     -71.58780000
H      -46.49840000     -30.71400000     -70.26060000
C      -43.61880000     -31.35320000     -73.81420000
H      -43.02100000     -30.44790000     -73.57530000
H      -43.64970000     -31.53220000     -74.94110000
C      -48.54060000     -33.03820000     -73.76650000
H      -49.45900000     -32.86120000     -73.23800000
H      -48.68520000     -32.74950000     -74.78970000
S      -42.58120000     -32.65990000     -72.99790000
S      -48.28470000     -34.83500000     -73.65310000
C      -43.37590000     -34.31500000     -73.10380000
H      -44.49680000     -34.22680000     -73.12480000
H      -42.99730000     -34.93990000     -73.93980000
C      -47.99420000     -35.17170000     -71.86720000
H      -48.22260000     -36.16030000     -71.60130000
H      -48.51850000     -34.53840000     -71.15560000
C      -46.45360000     -35.05030000     -71.57430000
H      -45.91010000     -35.98960000     -71.77330000
H      -46.04420000     -34.43180000     -72.33230000
C      -43.16110000     -35.12780000     -71.76910000
H      -42.17560000     -35.47890000     -71.74450000
H      -43.79350000     -36.01590000     -71.66710000
C      -43.41380000     -34.48280000     -70.43930000
C      -42.38650000     -33.93240000     -69.65900000
C      -44.65650000     -34.32430000     -69.83940000
H      -41.28840000     -33.78740000     -69.85800000
C      -44.58320000     -33.59590000     -68.59760000
C      -46.01410000     -34.58890000     -70.18070000
C      -46.87580000     -34.34170000     -69.09390000
S      -42.95710000     -33.26840000     -68.13800000
S      -46.03370000     -33.59510000     -67.73140000
H      -47.92300000     -34.48590000     -69.02180000
