40
Properties=species:S:1:pos:R:3 #=T CELL(abcABC):=T 1.889726e+02=T 90.00000=T Traj:=T positionsangstrom=T Step:=T 0=T Bead:=T pbc="F F F"
C      -47.35810000     -33.42670000     -74.94210000
C      -46.61680000     -32.25820000     -74.56290000
C      -45.21250000     -32.27970000     -74.53450000
C      -44.55570000     -33.55300000     -74.58660000
C      -45.31590000     -34.77380000     -74.63170000
C      -46.69030000     -34.65100000     -74.99840000
H      -48.36730000     -33.41090000     -75.16230000
H      -44.64100000     -31.41300000     -74.45070000
H      -44.88430000     -35.78710000     -74.61080000
H      -47.25450000     -35.66450000     -75.14760000
C      -43.07610000     -33.52060000     -74.34710000
H      -42.54320000     -32.65160000     -74.68560000
H      -42.61180000     -34.35910000     -74.88710000
C      -47.38490000     -30.98210000     -74.17170000
H      -46.78780000     -30.14630000     -74.51160000
H      -48.30940000     -30.85690000     -74.70580000
S      -42.72960000     -33.68320000     -72.51000000
S      -47.78120000     -30.80900000     -72.37500000
C      -43.36310000     -32.07790000     -71.78780000
H      -42.77680000     -31.27500000     -72.22760000
H      -44.37590000     -31.91250000     -72.06740000
C      -47.10540000     -32.31760000     -71.53730000
H      -46.17650000     -32.63770000     -72.04940000
H      -47.83940000     -33.07310000     -71.70160000
C      -46.98290000     -32.02810000     -70.00610000
H      -46.29910000     -31.14400000     -69.77810000
H      -47.93180000     -31.84200000     -69.48680000
C      -43.21100000     -32.08120000     -70.19130000
H      -43.90230000     -31.23960000     -69.86530000
H      -42.16680000     -31.76970000     -69.92750000
C      -43.63890000     -33.36450000     -69.52510000
C      -42.75040000     -34.22260000     -68.92480000
C      -44.99090000     -33.73030000     -69.14660000
H      -41.71500000     -34.05980000     -69.06670000
C      -45.05380000     -34.78520000     -68.29310000
C      -46.44510000     -33.22660000     -69.31900000
C      -47.33020000     -34.06220000     -68.69690000
S      -43.46420000     -35.44870000     -67.87290000
S      -46.62560000     -35.33650000     -67.76930000
H      -48.41700000     -33.98030000     -68.62500000
