40
Properties=species:S:1:pos:R:3 #=T CELL(abcABC):=T 1.889726e+02=T 90.00000=T Traj:=T positionsangstrom=T Step:=T 0=T Bead:=T pbc="F F F"
C      -47.19350000     -31.97720000     -72.21510000
C      -47.14880000     -32.77120000     -73.33140000
C      -45.94380000     -32.84920000     -74.07470000
C      -44.80670000     -32.15840000     -73.61220000
C      -44.90670000     -31.34290000     -72.46900000
C      -46.10190000     -31.16220000     -71.81280000
H      -47.98890000     -31.98460000     -71.53520000
H      -45.91310000     -33.55170000     -74.86920000
H      -43.99170000     -30.75400000     -72.17440000
H      -46.15080000     -30.38730000     -71.06390000
C      -43.53640000     -32.36410000     -74.21090000
H      -43.09160000     -31.41560000     -74.48010000
H      -43.63600000     -32.99420000     -75.08760000
C      -48.23860000     -33.73350000     -73.71470000
H      -49.24390000     -33.46760000     -73.29140000
H      -48.47870000     -33.80200000     -74.79520000
S      -42.36330000     -33.01380000     -72.94800000
S      -48.07060000     -35.58480000     -73.24560000
C      -43.08050000     -34.67170000     -72.64720000
H      -44.09590000     -34.60390000     -72.90800000
H      -42.61540000     -35.52480000     -73.15450000
C      -47.81580000     -35.69390000     -71.42980000
H      -48.32070000     -36.56010000     -71.00040000
H      -48.39270000     -34.92460000     -70.96550000
C      -46.31740000     -35.48970000     -70.98210000
H      -45.98630000     -36.49360000     -70.69490000
H      -45.86190000     -35.14910000     -71.88700000
C      -42.99980000     -35.03260000     -71.12170000
H      -41.84040000     -35.07520000     -70.98870000
H      -43.44010000     -36.03460000     -70.93350000
C      -43.52860000     -34.00070000     -70.15730000
C      -42.69420000     -33.03160000     -69.62200000
C      -44.87450000     -33.86620000     -69.62260000
H      -41.65790000     -32.94810000     -69.72950000
C      -44.94090000     -32.79820000     -68.73120000
C      -46.17920000     -34.48720000     -69.83820000
C      -47.14920000     -33.90310000     -69.12760000
S      -43.43630000     -31.96240000     -68.39350000
S      -46.52830000     -32.51440000     -68.12770000
H      -48.26250000     -34.03410000     -69.13420000
