40
Properties=species:S:1:pos:R:3 #=T CELL(abcABC):=T 1.889726e+02=T 90.00000=T Traj:=T positionsangstrom=T Step:=T 0=T Bead:=T pbc="F F F"
C      -47.71350000     -35.43190000     -73.32690000
C      -48.17010000     -34.19060000     -72.98300000
C      -47.63850000     -33.04180000     -73.52200000
C      -46.62350000     -33.12040000     -74.51140000
C      -46.19430000     -34.38050000     -74.90890000
C      -46.71730000     -35.49980000     -74.30320000
H      -48.24510000     -36.23170000     -72.91140000
H      -47.87960000     -32.12310000     -73.04140000
H      -45.47900000     -34.50280000     -75.72550000
H      -46.51550000     -36.45930000     -74.72120000
C      -46.03780000     -31.84150000     -75.16870000
H      -46.82280000     -31.37470000     -75.72250000
H      -45.18370000     -32.09180000     -75.80130000
C      -49.32070000     -33.93020000     -71.94910000
H      -49.54520000     -32.84930000     -71.92170000
H      -50.23590000     -34.60790000     -72.13780000
S      -45.48720000     -30.46870000     -74.00810000
S      -48.83060000     -34.48790000     -70.11170000
C      -44.11830000     -31.16900000     -73.00300000
H      -43.48870000     -31.74320000     -73.70520000
H      -43.51000000     -30.43390000     -72.44420000
C      -46.99070000     -34.69820000     -70.01910000
H      -46.58140000     -34.59820000     -71.09470000
H      -46.72500000     -35.77590000     -69.74750000
C      -46.36220000     -33.61450000     -69.14510000
H      -46.46010000     -32.64820000     -69.60240000
H      -46.80020000     -33.56700000     -68.11960000
C      -44.57630000     -32.17830000     -71.86830000
H      -45.02180000     -33.04990000     -72.36040000
H      -45.42620000     -31.78260000     -71.38180000
C      -43.56540000     -32.74650000     -70.93930000
C      -42.23380000     -32.55900000     -71.19050000
C      -43.81600000     -33.30240000     -69.62270000
H      -41.78210000     -32.16250000     -72.10030000
C      -42.58250000     -33.54980000     -68.93900000
C      -44.90820000     -33.88340000     -68.91260000
C      -44.55530000     -34.44110000     -67.70530000
S      -41.16640000     -33.15940000     -69.90750000
S      -42.79340000     -34.39740000     -67.43120000
H      -45.11680000     -34.82240000     -66.82580000
