40
Properties=species:S:1:pos:R:3 #=T CELL(abcABC):=T 1.889726e+02=T 90.00000=T Traj:=T positionsangstrom=T Step:=T 0=T Bead:=T pbc="F F F"
C      -47.42770000     -31.65770000     -71.84960000
C      -47.33020000     -32.36560000     -73.08550000
C      -46.13360000     -32.30230000     -73.75730000
C      -44.99470000     -31.59630000     -73.23640000
C      -45.09630000     -30.91270000     -72.03540000
C      -46.28610000     -31.07510000     -71.29920000
H      -48.34010000     -31.80440000     -71.28820000
H      -46.11790000     -32.90190000     -74.63640000
H      -44.24350000     -30.46830000     -71.52380000
H      -46.44510000     -30.61680000     -70.35160000
C      -43.74510000     -31.69830000     -73.97610000
H      -43.16580000     -30.83270000     -74.30300000
H      -43.83740000     -32.31310000     -74.83260000
C      -48.49810000     -33.11370000     -73.67980000
H      -49.50170000     -32.95160000     -73.12830000
H      -48.51280000     -32.83260000     -74.75680000
S      -42.46830000     -32.52870000     -72.88420000
S      -48.20770000     -34.97410000     -73.61000000
C      -43.32760000     -34.17770000     -72.96220000
H      -44.33920000     -33.93320000     -73.23590000
H      -42.91930000     -34.62560000     -73.84400000
C      -48.00020000     -35.16350000     -71.76040000
H      -48.58240000     -36.04820000     -71.58740000
H      -48.50470000     -34.27840000     -71.33260000
C      -46.51130000     -35.29220000     -71.39950000
H      -46.28320000     -36.35310000     -71.27480000
H      -45.82460000     -34.94020000     -72.20760000
C      -43.16020000     -35.12360000     -71.75240000
H      -42.08060000     -35.36240000     -71.68090000
H      -43.75320000     -36.01380000     -71.99750000
C      -43.46280000     -34.45590000     -70.47030000
C      -42.44260000     -33.82720000     -69.78870000
C      -44.69120000     -34.35770000     -69.77980000
H      -41.37040000     -33.70470000     -70.12290000
C      -44.61870000     -33.53550000     -68.62250000
C      -46.09410000     -34.63100000     -70.11180000
C      -46.98350000     -34.22490000     -69.14660000
S      -42.97400000     -33.04710000     -68.30680000
S      -46.15450000     -33.37050000     -67.83360000
H      -47.98810000     -34.55790000     -69.22390000
