40
Properties=species:S:1:pos:R:3 #=T CELL(abcABC):=T 1.889726e+02=T 90.00000=T Traj:=T positionsangstrom=T Step:=T 0=T Bead:=T pbc="F F F"
C      -47.42640000     -31.76760000     -71.92520000
C      -47.23910000     -32.43140000     -73.12650000
C      -46.03930000     -32.38510000     -73.80210000
C      -44.95120000     -31.67080000     -73.18250000
C      -45.10920000     -31.10350000     -71.94690000
C      -46.35280000     -31.04320000     -71.35460000
H      -48.44230000     -31.57780000     -71.58920000
H      -45.96890000     -32.77760000     -74.84380000
H      -44.34820000     -30.42800000     -71.52180000
H      -46.46100000     -30.45620000     -70.44190000
C      -43.57020000     -31.55720000     -73.84840000
H      -43.24100000     -30.56180000     -73.57150000
H      -43.73900000     -31.65160000     -74.93560000
C      -48.42340000     -33.21300000     -73.64720000
H      -49.29280000     -32.89700000     -73.16200000
H      -48.66300000     -33.07820000     -74.66750000
S      -42.40060000     -32.73870000     -73.04590000
S      -48.25320000     -35.03720000     -73.46370000
C      -43.21040000     -34.37650000     -73.14000000
H      -44.25880000     -34.25360000     -73.39020000
H      -42.72430000     -35.08260000     -73.91530000
C      -48.01450000     -35.29030000     -71.65110000
H      -48.70940000     -36.07820000     -71.30180000
H      -48.38760000     -34.46840000     -71.08300000
C      -46.56080000     -35.58660000     -71.19140000
H      -46.64650000     -36.56430000     -70.68560000
H      -45.83750000     -35.56410000     -72.02860000
C      -43.07410000     -35.09700000     -71.78720000
H      -41.97780000     -35.30810000     -71.67490000
H      -43.52100000     -36.08150000     -71.82880000
C      -43.45780000     -34.32680000     -70.46320000
C      -42.49230000     -33.69430000     -69.73600000
C      -44.75920000     -34.13120000     -69.84240000
H      -41.42110000     -33.60210000     -70.00370000
C      -44.65340000     -33.40460000     -68.69090000
C      -46.10420000     -34.57660000     -70.07890000
C      -46.99780000     -34.14070000     -69.12970000
S      -43.05010000     -32.86950000     -68.31910000
S      -46.24160000     -33.16610000     -67.91280000
H      -48.06510000     -34.17350000     -69.29680000
