40
Properties=species:S:1:pos:R:3 #=T CELL(abcABC):=T 1.889726e+02=T 90.00000=T Traj:=T positionsangstrom=T Step:=T 0=T Bead:=T pbc="F F F"
C      -47.40580000     -31.91630000     -72.10010000
C      -47.20040000     -32.65350000     -73.27640000
C      -45.92330000     -32.69830000     -73.82770000
C      -44.83380000     -32.09210000     -73.19580000
C      -45.08010000     -31.40570000     -72.01950000
C      -46.33450000     -31.42270000     -71.38510000
H      -48.32090000     -31.95660000     -71.65430000
H      -45.73840000     -33.25310000     -74.72210000
H      -44.24020000     -30.90050000     -71.50800000
H      -46.50650000     -30.93660000     -70.43900000
C      -43.49350000     -31.97950000     -73.98580000
H      -43.15960000     -30.92330000     -73.84000000
H      -43.78660000     -32.18170000     -75.04710000
C      -48.24840000     -33.55720000     -73.87700000
H      -49.24940000     -33.23830000     -73.57690000
H      -48.27840000     -33.40600000     -74.99070000
S      -42.24150000     -33.09840000     -73.25440000
S      -48.10010000     -35.34070000     -73.46830000
C      -43.19760000     -34.63330000     -72.90260000
H      -44.21340000     -34.50000000     -73.19300000
H      -42.69640000     -35.40700000     -73.52110000
C      -48.07180000     -35.25920000     -71.62130000
H      -48.63820000     -36.12480000     -71.27070000
H      -48.60770000     -34.37750000     -71.21810000
C      -46.62870000     -35.39800000     -71.07900000
H      -46.43700000     -36.43120000     -70.74780000
H      -46.02960000     -35.21000000     -71.92680000
C      -43.05840000     -35.06320000     -71.39950000
H      -42.00210000     -35.33910000     -71.19610000
H      -43.64400000     -35.95690000     -71.31520000
C      -43.48170000     -34.05410000     -70.33650000
C      -42.57090000     -33.27340000     -69.71100000
C      -44.86680000     -33.84370000     -69.78400000
H      -41.56030000     -33.10290000     -69.98140000
C      -44.83090000     -32.94610000     -68.60640000
C      -46.20660000     -34.43710000     -69.98920000
C      -47.07260000     -33.92650000     -69.00280000
S      -43.19080000     -32.24120000     -68.33770000
S      -46.40230000     -32.75780000     -67.87590000
H      -48.10730000     -34.13570000     -68.89440000
