40
Properties=species:S:1:pos:R:3 #=T CELL(abcABC):=T 1.889726e+02=T 90.00000=T Traj:=T positionsangstrom=T Step:=T 0=T Bead:=T pbc="F F F"
C      -46.91760000     -35.34230000     -74.27950000
C      -45.52720000     -35.11620000     -74.21620000
C      -44.72760000     -35.86500000     -73.35450000
C      -45.34000000     -36.77420000     -72.43780000
C      -46.77800000     -37.03950000     -72.49350000
C      -47.49460000     -36.31560000     -73.45460000
H      -47.45720000     -34.88740000     -75.02970000
H      -43.71080000     -35.67630000     -73.29640000
H      -47.17470000     -37.76360000     -71.84430000
H      -48.55690000     -36.65130000     -73.36930000
C      -44.54040000     -37.53700000     -71.41000000
H      -43.46580000     -37.53790000     -71.67300000
H      -44.83830000     -38.55680000     -71.44910000
C      -44.79470000     -34.18270000     -75.13550000
H      -43.83910000     -34.55670000     -75.26050000
H      -45.18340000     -34.20190000     -76.16450000
S      -44.79970000     -36.93100000     -69.67710000
S      -44.61510000     -32.36840000     -74.75310000
C      -45.26570000     -35.09300000     -69.86890000
H      -45.96000000     -34.95890000     -70.71210000
H      -45.85900000     -34.85630000     -68.98860000
C      -46.06190000     -31.99580000     -73.63520000
H      -46.96410000     -32.23850000     -74.20710000
H      -46.02050000     -30.90130000     -73.48930000
C      -46.07580000     -32.51630000     -72.16600000
H      -47.04630000     -32.91550000     -71.97420000
H      -45.31740000     -33.25670000     -71.92020000
C      -44.06920000     -34.14840000     -69.88530000
H      -43.62760000     -34.04310000     -70.93030000
H      -43.28660000     -34.55720000     -69.22560000
C      -44.36480000     -32.71310000     -69.31300000
C      -44.06270000     -32.37440000     -68.03580000
C      -45.06500000     -31.61830000     -69.97430000
H      -43.44970000     -32.96030000     -67.39180000
C      -45.17020000     -30.51930000     -69.15720000
C      -45.82660000     -31.37490000     -71.17540000
C      -46.40740000     -30.17300000     -71.18330000
S      -44.46420000     -30.70700000     -67.57870000
S      -46.13920000     -29.22890000     -69.77760000
H      -47.00330000     -29.75070000     -72.03440000
