40
Properties=species:S:1:pos:R:3 #=T CELL(abcABC):=T 1.889726e+02=T 90.00000=T Traj:=T positionsangstrom=T Step:=T 0=T Bead:=T pbc="F F F"
C      -46.73940000     -35.24100000     -74.53600000
C      -45.40260000     -34.90770000     -74.41900000
C      -44.71380000     -35.56230000     -73.37530000
C      -45.31230000     -36.44320000     -72.44320000
C      -46.67070000     -36.81500000     -72.66530000
C      -47.35050000     -36.18480000     -73.72920000
H      -47.47520000     -34.80370000     -75.28220000
H      -43.63150000     -35.22820000     -73.17730000
H      -47.20850000     -37.42070000     -71.91380000
H      -48.34120000     -36.37760000     -74.00280000
C      -44.50970000     -37.09000000     -71.31040000
H      -43.47810000     -36.65470000     -71.42010000
H      -44.35360000     -38.12820000     -71.48540000
C      -44.76860000     -33.88860000     -75.33820000
H      -43.77190000     -34.18420000     -75.65720000
H      -45.25750000     -33.65480000     -76.32000000
S      -45.25680000     -36.86380000     -69.60370000
S      -44.56090000     -32.24310000     -74.46810000
C      -45.37240000     -35.05170000     -69.42790000
H      -46.24600000     -34.67380000     -69.97370000
H      -45.53630000     -34.86660000     -68.37200000
C      -46.19070000     -32.03680000     -73.54490000
H      -47.04380000     -32.35540000     -74.13290000
H      -46.26200000     -30.92350000     -73.27950000
C      -46.35760000     -32.77790000     -72.11150000
H      -47.38970000     -33.16450000     -71.96360000
H      -45.64710000     -33.68540000     -72.10540000
C      -44.08170000     -34.30950000     -69.81210000
H      -43.83580000     -34.36060000     -70.87590000
H      -43.28860000     -34.69540000     -69.22430000
C      -44.20390000     -32.86720000     -69.34860000
C      -43.60990000     -32.40670000     -68.19390000
C      -45.07870000     -31.84980000     -69.95950000
H      -42.93620000     -32.99030000     -67.58460000
C      -45.05700000     -30.64920000     -69.26840000
C      -46.06460000     -31.76040000     -71.03540000
C      -46.71750000     -30.56360000     -71.07280000
S      -44.05610000     -30.75810000     -67.81220000
S      -46.23600000     -29.53890000     -69.76440000
H      -47.57250000     -30.23590000     -71.63380000
