40
Properties=species:S:1:pos:R:3 #=T CELL(abcABC):=T 1.889726e+02=T 90.00000=T Traj:=T positionsangstrom=T Step:=T 0=T Bead:=T pbc="F F F"
C      -48.03530000     -35.42860000     -73.15080000
C      -48.39480000     -34.20870000     -72.57610000
C      -48.05650000     -32.94100000     -73.16530000
C      -47.25270000     -32.90260000     -74.35340000
C      -46.80730000     -34.11570000     -74.86060000
C      -47.20880000     -35.36990000     -74.29560000
H      -48.40830000     -36.38920000     -72.65300000
H      -48.30910000     -31.97070000     -72.72440000
H      -46.22400000     -34.09900000     -75.75060000
H      -47.11880000     -36.30170000     -74.78400000
C      -46.72870000     -31.54730000     -74.85490000
H      -47.48480000     -31.03240000     -75.46750000
H      -45.97700000     -31.68870000     -75.64420000
C      -49.14310000     -34.13680000     -71.26280000
H      -49.30790000     -33.09970000     -71.06090000
H      -50.04630000     -34.78180000     -71.34250000
S      -46.20440000     -30.33370000     -73.56280000
S      -48.25420000     -35.08420000     -69.89920000
C      -44.64830000     -30.90780000     -72.76020000
H      -43.99690000     -31.12990000     -73.59550000
H      -44.38370000     -30.04050000     -72.11180000
C      -46.53500000     -34.67470000     -69.97680000
H      -46.36610000     -34.16210000     -70.93320000
H      -45.99090000     -35.57260000     -69.88900000
C      -46.00130000     -33.62080000     -68.96220000
H      -46.21010000     -32.62580000     -69.27100000
H      -46.39920000     -33.64140000     -67.91380000
C      -44.81590000     -32.17030000     -71.78610000
H      -45.41350000     -32.86250000     -72.35960000
H      -45.53600000     -31.88810000     -70.97950000
C      -43.57650000     -32.71970000     -71.15570000
C      -42.28340000     -32.69150000     -71.75390000
C      -43.55930000     -33.29850000     -69.88900000
H      -42.03740000     -32.08970000     -72.71340000
C      -42.24340000     -33.67310000     -69.48050000
C      -44.47740000     -33.67200000     -68.86670000
C      -43.88310000     -34.29540000     -67.75890000
S      -41.02590000     -33.30100000     -70.66370000
S      -42.13650000     -34.34080000     -67.85550000
H      -44.30970000     -34.42240000     -66.75710000
