40
Properties=species:S:1:pos:R:3 #=T CELL(abcABC):=T 1.889726e+02=T 90.00000=T Traj:=T positionsangstrom=T Step:=T 0=T Bead:=T pbc="F F F"
C      -47.44260000     -33.39190000     -74.65080000
C      -46.66880000     -32.27490000     -74.50430000
C      -45.24100000     -32.30680000     -74.42950000
C      -44.61340000     -33.53770000     -74.59290000
C      -45.35840000     -34.69280000     -75.00300000
C      -46.78400000     -34.58490000     -74.98110000
H      -48.55990000     -33.31080000     -74.60050000
H      -44.61880000     -31.47000000     -74.18820000
H      -45.02370000     -35.68820000     -75.14670000
H      -47.36370000     -35.54190000     -75.30410000
C      -43.14580000     -33.76850000     -74.21000000
H      -42.48620000     -32.87650000     -74.46040000
H      -42.83620000     -34.69340000     -74.69420000
C      -47.30650000     -30.96930000     -74.34510000
H      -46.71930000     -30.06320000     -74.69600000
H      -48.27370000     -30.81000000     -74.97340000
S      -42.88250000     -33.98520000     -72.40440000
S      -47.67570000     -30.68290000     -72.50460000
C      -43.29170000     -32.34690000     -71.73930000
H      -42.66420000     -31.60510000     -72.29850000
H      -44.33340000     -32.08720000     -71.95760000
C      -46.98400000     -32.24550000     -71.74980000
H      -46.03980000     -32.60210000     -72.14400000
H      -47.73770000     -33.04220000     -71.75080000
C      -46.61350000     -31.95530000     -70.21130000
H      -45.71110000     -31.35200000     -70.31320000
H      -47.39360000     -31.38610000     -69.79370000
C      -43.17100000     -32.10080000     -70.18210000
H      -43.79370000     -31.28810000     -69.95700000
H      -42.14860000     -31.88460000     -69.88690000
C      -43.73600000     -33.36530000     -69.47900000
C      -42.76390000     -34.18600000     -68.91350000
C      -45.05540000     -33.75410000     -69.12880000
H      -41.70410000     -34.06120000     -69.02050000
C      -45.08650000     -34.79380000     -68.21100000
C      -46.39930000     -33.26590000     -69.40400000
C      -47.37930000     -33.87130000     -68.65420000
S      -43.45550000     -35.42160000     -67.88570000
S      -46.63900000     -35.15270000     -67.62950000
H      -48.42220000     -33.73320000     -68.82580000
