40
Properties=species:S:1:pos:R:3 #=T CELL(abcABC):=T 1.889726e+02=T 90.00000=T Traj:=T positionsangstrom=T Step:=T 0=T Bead:=T pbc="F F F"
C      -46.77020000     -35.28440000     -74.40270000
C      -45.35550000     -35.16220000     -74.31520000
C      -44.68340000     -35.86450000     -73.31640000
C      -45.41100000     -36.70030000     -72.42630000
C      -46.84920000     -36.86270000     -72.53290000
C      -47.51410000     -36.13110000     -73.56660000
H      -47.16630000     -34.66890000     -75.14960000
H      -43.58290000     -35.89500000     -73.17780000
H      -47.43360000     -37.52890000     -71.93430000
H      -48.61840000     -36.26200000     -73.48000000
C      -44.67190000     -37.49590000     -71.35440000
H      -43.64940000     -37.57840000     -71.70670000
H      -45.03390000     -38.56450000     -71.40020000
C      -44.66700000     -34.25650000     -75.27190000
H      -43.56100000     -34.44030000     -75.30480000
H      -45.15220000     -34.33620000     -76.26760000
S      -44.75710000     -36.78600000     -69.59320000
S      -44.74320000     -32.41290000     -74.72220000
C      -45.34310000     -35.06060000     -69.72380000
H      -46.04240000     -35.01950000     -70.57960000
H      -45.86110000     -34.85210000     -68.78950000
C      -46.23510000     -32.06920000     -73.71130000
H      -47.08560000     -32.69450000     -74.04840000
H      -46.52940000     -31.06080000     -73.95790000
C      -46.08100000     -32.47010000     -72.24480000
H      -46.97400000     -33.20320000     -71.96380000
H      -45.22760000     -33.13730000     -72.28810000
C      -44.14230000     -34.09240000     -69.94410000
H      -43.82430000     -34.03790000     -70.94460000
H      -43.26450000     -34.54740000     -69.44980000
C      -44.37420000     -32.75210000     -69.32040000
C      -43.85790000     -32.41500000     -68.09400000
C      -45.17580000     -31.65840000     -69.92670000
H      -43.05150000     -32.95310000     -67.62110000
C      -45.25370000     -30.57290000     -69.00270000
C      -45.98380000     -31.48860000     -71.11550000
C      -46.54890000     -30.26850000     -71.22050000
S      -44.26910000     -30.77830000     -67.56380000
S      -46.08050000     -29.28540000     -69.75330000
H      -46.94580000     -29.73780000     -72.05460000
