40
Properties=species:S:1:pos:R:3 #=T CELL(abcABC):=T 1.889726e+02=T 90.00000=T Traj:=T positionsangstrom=T Step:=T 0=T Bead:=T pbc="F F F"
C      -46.66550000     -35.37410000     -74.79810000
C      -45.35830000     -34.94020000     -74.45090000
C      -44.63100000     -35.59230000     -73.42250000
C      -45.26410000     -36.65540000     -72.70610000
C      -46.55610000     -37.02840000     -73.04940000
C      -47.20490000     -36.47360000     -74.12230000
H      -47.27970000     -34.76670000     -75.45370000
H      -43.61530000     -35.34530000     -73.22660000
H      -47.07360000     -37.85220000     -72.53620000
H      -48.17540000     -36.90090000     -74.29850000
C      -44.55460000     -37.20250000     -71.48360000
H      -43.46550000     -36.87640000     -71.51380000
H      -44.44310000     -38.30630000     -71.53150000
C      -44.80340000     -33.74920000     -75.13050000
H      -43.79920000     -33.94370000     -75.48590000
H      -45.44470000     -33.41570000     -75.98350000
S      -45.23630000     -36.82810000     -69.83750000
S      -44.50990000     -32.36120000     -73.93560000
C      -45.32730000     -34.94750000     -69.65570000
H      -46.27780000     -34.50920000     -70.08210000
H      -45.45740000     -34.71360000     -68.59370000
C      -46.28740000     -32.03380000     -73.31250000
H      -46.89620000     -32.46330000     -74.10480000
H      -46.38390000     -30.97860000     -73.35980000
C      -46.67130000     -32.55910000     -71.92240000
H      -47.81510000     -32.76930000     -71.96870000
H      -46.18790000     -33.53950000     -71.75560000
C      -44.18000000     -34.12670000     -70.23150000
H      -44.26120000     -34.01540000     -71.28100000
H      -43.20250000     -34.53950000     -70.09030000
C      -44.29390000     -32.78980000     -69.57100000
C      -43.44440000     -32.42740000     -68.50220000
C      -45.20440000     -31.75680000     -69.90710000
H      -42.61350000     -32.99260000     -68.10920000
C      -45.11820000     -30.64210000     -69.02560000
C      -46.26200000     -31.59030000     -70.93160000
C      -46.88630000     -30.38850000     -70.77030000
S      -43.93190000     -30.87780000     -67.80410000
S      -46.21030000     -29.39390000     -69.47730000
H      -47.82640000     -30.18430000     -71.22380000
