40
Properties=species:S:1:pos:R:3 #=T CELL(abcABC):=T 1.889726e+02=T 90.00000=T Traj:=T positionsangstrom=T Step:=T 0=T Bead:=T pbc="F F F"
C      -46.65370000     -35.61810000     -74.53140000
C      -45.33570000     -35.20340000     -74.31410000
C      -44.59340000     -35.71930000     -73.22780000
C      -45.16480000     -36.64140000     -72.33540000
C      -46.55510000     -37.00000000     -72.54860000
C      -47.29480000     -36.48550000     -73.57350000
H      -47.08500000     -35.30680000     -75.42280000
H      -43.60840000     -35.38020000     -72.97380000
H      -46.91670000     -37.72750000     -71.93380000
H      -48.29000000     -36.92470000     -73.73280000
C      -44.30270000     -37.22090000     -71.30820000
H      -43.26100000     -36.82050000     -71.25520000
H      -44.31120000     -38.34020000     -71.32800000
C      -44.68240000     -34.23500000     -75.19670000
H      -43.81050000     -34.66810000     -75.62340000
H      -45.37150000     -33.87970000     -76.04010000
S      -44.92960000     -37.01850000     -69.51700000
S      -44.17440000     -32.69720000     -74.31590000
C      -44.49210000     -35.24920000     -68.96100000
H      -44.70900000     -35.18690000     -67.91920000
H      -43.39890000     -35.13650000     -68.96010000
C      -45.93180000     -32.06340000     -73.81910000
H      -46.68170000     -32.49010000     -74.50990000
H      -45.96680000     -31.06590000     -74.09450000
C      -46.18420000     -32.37680000     -72.37780000
H      -47.29960000     -32.36000000     -72.36200000
H      -45.92820000     -33.37520000     -72.11390000
C      -45.16780000     -34.11700000     -69.72090000
H      -46.17180000     -34.39440000     -69.93600000
H      -44.57270000     -34.09710000     -70.63910000
C      -45.17630000     -32.76890000     -69.16360000
C      -44.89770000     -32.40610000     -67.85280000
C      -45.48450000     -31.58210000     -70.03150000
H      -44.59900000     -32.97970000     -66.93630000
C      -45.49430000     -30.42660000     -69.28920000
C      -45.76050000     -31.34170000     -71.42600000
C      -45.99090000     -29.99910000     -71.67480000
S      -44.90910000     -30.64810000     -67.65280000
S      -45.76980000     -28.98430000     -70.25540000
H      -46.23920000     -29.46220000     -72.52670000
