40
Properties=species:S:1:pos:R:3 #=T CELL(abcABC):=T 1.889726e+02=T 90.00000=T Traj:=T positionsangstrom=T Step:=T 0=T Bead:=T pbc="F F F"
C      -47.11670000     -35.14460000     -67.53620000
C      -46.40040000     -35.61230000     -68.60540000
C      -46.91330000     -35.59540000     -69.90860000
C      -48.29540000     -35.13520000     -70.14280000
C      -49.02570000     -34.65200000     -69.09800000
C      -48.40990000     -34.64340000     -67.79870000
H      -46.69750000     -34.96660000     -66.60060000
H      -46.23160000     -36.11220000     -70.64880000
H      -50.05120000     -34.25870000     -69.23410000
H      -49.00790000     -34.22750000     -66.93390000
C      -48.79660000     -35.19310000     -71.58210000
H      -49.83350000     -35.54300000     -71.67590000
H      -48.16280000     -35.90830000     -72.18440000
C      -45.03230000     -36.31580000     -68.35220000
H      -44.66180000     -35.91630000     -67.38930000
H      -45.09550000     -37.43000000     -68.09200000
S      -48.73200000     -33.64620000     -72.60710000
S      -43.75150000     -36.24640000     -69.56570000
C      -47.03400000     -33.11380000     -72.90290000
H      -46.33140000     -33.92550000     -73.05090000
H      -46.95490000     -32.49800000     -73.80050000
C      -43.54890000     -34.51480000     -70.08010000
H      -42.59220000     -34.19410000     -69.76810000
H      -44.21220000     -33.82030000     -69.60600000
C      -43.81500000     -34.45190000     -71.59060000
H      -43.41120000     -35.35310000     -72.15750000
H      -44.90450000     -34.46050000     -71.80660000
C      -46.53030000     -32.09880000     -71.82180000
H      -46.34790000     -32.48290000     -70.86350000
H      -47.24640000     -31.31640000     -71.69130000
C      -45.26510000     -31.37750000     -72.37090000
C      -45.32830000     -30.00100000     -72.57720000
C      -43.90180000     -31.97490000     -72.63900000
H      -46.25840000     -29.45280000     -72.65740000
C      -43.09690000     -30.93640000     -73.13000000
C      -43.19140000     -33.17720000     -72.27010000
C      -41.87880000     -33.08520000     -72.59250000
S      -43.88270000     -29.39550000     -73.33730000
S      -41.41820000     -31.46720000     -73.22520000
H      -41.15190000     -33.84660000     -72.50550000
