40
Properties=species:S:1:pos:R:3 #=T CELL(abcABC):=T 1.889726e+02=T 90.00000=T Traj:=T positionsangstrom=T Step:=T 0=T Bead:=T pbc="F F F"
C      -46.92770000     -35.31360000     -74.20240000
C      -45.58330000     -35.06560000     -74.18780000
C      -44.67820000     -35.68720000     -73.32250000
C      -45.20210000     -36.67840000     -72.42680000
C      -46.60010000     -37.06290000     -72.55010000
C      -47.41910000     -36.25800000     -73.32170000
H      -47.55700000     -34.69440000     -74.85780000
H      -43.62080000     -35.48630000     -73.20260000
H      -47.00850000     -37.86220000     -71.89530000
H      -48.46160000     -36.47820000     -73.33950000
C      -44.38940000     -37.40090000     -71.43520000
H      -43.30390000     -37.16410000     -71.49410000
H      -44.50090000     -38.48840000     -71.36580000
C      -45.03200000     -34.09950000     -75.25950000
H      -44.12360000     -34.53690000     -75.68440000
H      -45.81730000     -33.92290000     -76.06110000
S      -44.85480000     -36.88660000     -69.72560000
S      -44.49610000     -32.45010000     -74.58340000
C      -45.26300000     -35.11260000     -69.84390000
H      -45.89390000     -34.88050000     -70.71760000
H      -45.93840000     -34.89490000     -68.97580000
C      -46.10060000     -32.04120000     -73.72880000
H      -46.83520000     -32.46240000     -74.37640000
H      -46.33760000     -30.93630000     -73.74120000
C      -46.11470000     -32.53180000     -72.28490000
H      -47.18070000     -32.87450000     -72.17130000
H      -45.53150000     -33.39360000     -72.10640000
C      -44.05670000     -34.20830000     -69.82630000
H      -43.72640000     -34.16520000     -70.89780000
H      -43.30820000     -34.63390000     -69.19580000
C      -44.42310000     -32.78510000     -69.28210000
C      -44.06170000     -32.43890000     -68.01290000
C      -45.25100000     -31.75000000     -69.92430000
H      -43.56780000     -33.11590000     -67.33400000
C      -45.35330000     -30.61780000     -69.10760000
C      -45.87740000     -31.43080000     -71.23680000
C      -46.28210000     -30.14110000     -71.38570000
S      -44.57500000     -30.78510000     -67.54370000
S      -46.01410000     -29.15460000     -69.85280000
H      -47.02780000     -29.87280000     -72.17700000
