40
Properties=species:S:1:pos:R:3 #=T CELL(abcABC):=T 1.889726e+02=T 90.00000=T Traj:=T positionsangstrom=T Step:=T 0=T Bead:=T pbc="F F F"
C      -46.74480000     -35.55100000     -74.33270000
C      -45.40310000     -35.18250000     -74.30490000
C      -44.59420000     -35.66730000     -73.27060000
C      -45.11330000     -36.49030000     -72.25070000
C      -46.44660000     -36.88900000     -72.35850000
C      -47.29380000     -36.38000000     -73.31700000
H      -47.39570000     -35.21320000     -75.09490000
H      -43.54780000     -35.46110000     -73.30810000
H      -46.87410000     -37.50020000     -71.59080000
H      -48.32720000     -36.71740000     -73.38300000
C      -44.14630000     -36.97420000     -71.16590000
H      -43.27760000     -36.32170000     -71.19020000
H      -43.80830000     -37.94650000     -71.45060000
C      -44.85070000     -34.31260000     -75.36650000
H      -43.92580000     -34.66310000     -75.83360000
H      -45.52800000     -34.20590000     -76.21030000
S      -44.87680000     -37.03930000     -69.52200000
S      -44.39440000     -32.65930000     -74.53350000
C      -45.18550000     -35.31660000     -68.99500000
H      -46.24490000     -35.17140000     -68.90810000
H      -44.77320000     -35.25570000     -67.97720000
C      -46.02340000     -31.87250000     -73.85630000
H      -46.76690000     -32.32800000     -74.46360000
H      -45.92300000     -30.76720000     -73.96530000
C      -46.24950000     -32.37690000     -72.44050000
H      -47.38770000     -32.53380000     -72.35530000
H      -45.87160000     -33.36950000     -72.34190000
C      -44.65650000     -34.19130000     -69.90200000
H      -45.24730000     -34.26580000     -70.86530000
H      -43.63140000     -34.40510000     -70.20580000
C      -44.92340000     -32.78180000     -69.32970000
C      -44.52740000     -32.43920000     -68.05270000
C      -45.36030000     -31.64180000     -70.06340000
H      -44.04480000     -33.15770000     -67.42610000
C      -45.22200000     -30.48980000     -69.28080000
C      -45.94240000     -31.36920000     -71.29870000
C      -46.30990000     -30.06620000     -71.45610000
S      -44.60350000     -30.75750000     -67.68840000
S      -45.94070000     -29.08480000     -70.08960000
H      -46.63250000     -29.68690000     -72.49620000
