40
Properties=species:S:1:pos:R:3 #=T CELL(abcABC):=T 1.889726e+02=T 90.00000=T Traj:=T positionsangstrom=T Step:=T 0=T Bead:=T pbc="F F F"
C      -47.53940000     -34.52400000     -68.22880000
C      -48.19350000     -34.03380000     -69.32820000
C      -47.93480000     -32.71090000     -69.73000000
C      -47.05110000     -31.91250000     -68.99500000
C      -46.50010000     -32.41020000     -67.77980000
C      -46.77140000     -33.66610000     -67.37690000
H      -47.92970000     -35.48630000     -67.99670000
H      -48.42530000     -32.48970000     -70.73860000
H      -45.84710000     -31.84750000     -67.18150000
H      -46.24220000     -34.12060000     -66.60540000
C      -47.01020000     -30.42110000     -69.33970000
H      -46.36860000     -29.94490000     -68.58790000
H      -48.04130000     -29.93590000     -69.16570000
C      -49.03180000     -34.88960000     -70.25060000
H      -49.83620000     -35.49710000     -69.84040000
H      -49.53230000     -34.23920000     -70.97220000
S      -46.46320000     -29.85140000     -70.97020000
S      -48.15220000     -36.16480000     -71.34570000
C      -44.70920000     -30.33060000     -70.93370000
H      -44.21190000     -30.01310000     -71.85370000
H      -44.27530000     -29.93560000     -70.01980000
C      -46.86130000     -35.17190000     -72.15260000
H      -47.24910000     -34.14090000     -72.34110000
H      -46.66490000     -35.52260000     -73.20740000
C      -45.44230000     -35.32670000     -71.39600000
H      -45.37370000     -34.55660000     -70.55990000
H      -45.39310000     -36.31690000     -70.94690000
C      -44.43730000     -31.85390000     -70.89230000
H      -45.44600000     -32.38010000     -71.11330000
H      -44.08280000     -32.19840000     -69.89380000
C      -43.47980000     -32.38690000     -71.88430000
C      -42.37260000     -31.69010000     -72.33580000
C      -43.54190000     -33.73520000     -72.46250000
H      -42.02830000     -30.67440000     -71.99020000
C      -42.48950000     -33.93140000     -73.38690000
C      -44.26740000     -34.98230000     -72.28570000
C      -43.74430000     -35.99540000     -73.11770000
S      -41.48200000     -32.49980000     -73.64080000
S      -42.44980000     -35.48880000     -74.08400000
H      -44.18560000     -37.05360000     -73.33130000
