40
Properties=species:S:1:pos:R:3 #=T CELL(abcABC):=T 1.889726e+02=T 90.00000=T Traj:=T positionsangstrom=T Step:=T 0=T Bead:=T pbc="F F F"
C      -47.07410000     -35.02590000     -67.43080000
C      -46.21180000     -35.49910000     -68.47310000
C      -46.75600000     -35.62430000     -69.81390000
C      -47.99670000     -35.05440000     -70.14600000
C      -48.77270000     -34.44990000     -69.11120000
C      -48.28390000     -34.41980000     -67.81640000
H      -46.89920000     -35.16340000     -66.44740000
H      -46.21450000     -36.01830000     -70.62630000
H      -49.70870000     -34.03120000     -69.36280000
H      -49.02930000     -34.12630000     -67.00600000
C      -48.59630000     -35.29050000     -71.51200000
H      -49.56110000     -35.71010000     -71.56830000
H      -47.92170000     -36.00400000     -72.03470000
C      -44.91080000     -36.20930000     -68.13820000
H      -44.45460000     -35.79210000     -67.29270000
H      -45.23240000     -37.21600000     -68.02720000
S      -48.80160000     -33.76300000     -72.60310000
S      -43.71460000     -36.28040000     -69.60170000
C      -47.04540000     -33.18340000     -72.85540000
H      -46.45880000     -34.08170000     -72.72280000
H      -46.90600000     -32.84960000     -73.92830000
C      -43.87330000     -34.58570000     -70.23430000
H      -43.11930000     -34.02230000     -69.70670000
H      -44.87500000     -34.06770000     -69.99080000
C      -43.69020000     -34.53930000     -71.74320000
H      -42.91890000     -35.35830000     -71.96410000
H      -44.60710000     -34.95340000     -72.16520000
C      -46.49540000     -32.21020000     -71.78420000
H      -46.19750000     -32.81820000     -70.86450000
H      -47.29300000     -31.53230000     -71.45200000
C      -45.33080000     -31.40160000     -72.34220000
C      -45.46520000     -30.05350000     -72.58790000
C      -43.97020000     -31.91530000     -72.44280000
H      -46.31090000     -29.46370000     -72.37480000
C      -43.15500000     -30.90500000     -72.96140000
C      -43.25130000     -33.23190000     -72.35700000
C      -41.97890000     -33.03270000     -72.75420000
S      -43.98800000     -29.35540000     -73.33030000
S      -41.55790000     -31.46170000     -73.39750000
H      -41.22220000     -33.82120000     -72.75190000
