40
Properties=species:S:1:pos:R:3 #=T CELL(abcABC):=T 1.889726e+02=T 90.00000=T Traj:=T positionsangstrom=T Step:=T 0=T Bead:=T pbc="F F F"
C      -48.75880000     -32.59460000     -69.34150000
C      -47.54220000     -32.29680000     -68.72080000
C      -46.72020000     -31.33930000     -69.22790000
C      -47.03940000     -30.66130000     -70.44020000
C      -48.27330000     -30.84500000     -71.04600000
C      -49.09970000     -31.87860000     -70.50570000
H      -49.46620000     -33.31130000     -69.00230000
H      -45.82690000     -30.98440000     -68.71760000
H      -48.43740000     -30.16970000     -71.85950000
H      -49.99710000     -32.03740000     -71.03520000
C      -46.02340000     -29.60380000     -70.93110000
H      -45.12250000     -29.71550000     -70.26880000
H      -46.44270000     -28.61790000     -70.67560000
C      -47.11390000     -33.21190000     -67.57780000
H      -46.19960000     -32.81100000     -67.14140000
H      -47.88980000     -33.09720000     -66.77110000
S      -45.55780000     -29.66030000     -72.71140000
S      -46.87380000     -34.95330000     -67.99690000
C      -45.03480000     -31.44660000     -72.98850000
H      -45.92900000     -32.08660000     -72.79410000
H      -44.72030000     -31.47140000     -74.04250000
C      -45.49510000     -34.88280000     -69.24760000
H      -45.00920000     -35.88870000     -69.19240000
H      -44.74110000     -34.16160000     -68.86580000
C      -45.91520000     -34.63690000     -70.66750000
H      -46.84460000     -35.18920000     -70.83600000
H      -46.18870000     -33.60370000     -70.83670000
C      -43.78700000     -31.95410000     -72.05400000
H      -44.25290000     -32.03940000     -71.03400000
H      -42.99340000     -31.31950000     -72.13440000
C      -43.39300000     -33.26290000     -72.63760000
C      -42.31970000     -33.24030000     -73.47950000
C      -43.83330000     -34.62470000     -72.36140000
H      -41.66070000     -32.43110000     -73.89140000
C      -43.03250000     -35.58110000     -73.00470000
C      -44.91540000     -35.23530000     -71.61890000
C      -44.99670000     -36.58310000     -71.93760000
S      -41.79400000     -34.80090000     -74.01880000
S      -43.72020000     -37.19370000     -72.96600000
H      -45.71450000     -37.20500000     -71.48690000
