40
Properties=species:S:1:pos:R:3 #=T CELL(abcABC):=T 1.889726e+02=T 90.00000=T Traj:=T positionsangstrom=T Step:=T 0=T Bead:=T pbc="F F F"
C      -48.03280000     -35.46960000     -68.80500000
C      -48.16130000     -34.39890000     -69.71710000
C      -47.71320000     -33.11180000     -69.37300000
C      -46.91440000     -32.93900000     -68.19510000
C      -46.77150000     -34.05030000     -67.34320000
C      -47.36940000     -35.31530000     -67.59210000
H      -48.28670000     -36.42180000     -69.27200000
H      -47.72910000     -32.30260000     -70.13730000
H      -46.13860000     -33.98490000     -66.45250000
H      -47.22600000     -36.06930000     -66.80110000
C      -46.32370000     -31.56460000     -67.83810000
H      -45.32980000     -31.77620000     -67.28350000
H      -46.90950000     -31.05290000     -67.04590000
C      -48.88110000     -34.64420000     -70.95010000
H      -49.86510000     -35.01310000     -70.67280000
H      -49.07590000     -33.65310000     -71.52700000
S      -46.19510000     -30.47600000     -69.37700000
S      -48.07540000     -35.88460000     -72.05720000
C      -44.88190000     -31.27370000     -70.43940000
H      -43.80620000     -31.00100000     -70.19370000
H      -44.95550000     -32.36620000     -70.15040000
C      -46.63930000     -34.96210000     -72.79660000
H      -46.99000000     -34.05010000     -73.30920000
H      -46.30930000     -35.66640000     -73.47850000
C      -45.57940000     -34.56070000     -71.69280000
H      -45.97990000     -33.61860000     -71.29490000
H      -45.48610000     -35.36040000     -70.92190000
C      -45.08340000     -31.22990000     -71.93460000
H      -45.43800000     -30.19330000     -72.17840000
H      -46.00780000     -31.75270000     -72.04280000
C      -43.97410000     -31.72110000     -72.74180000
C      -43.20710000     -30.92210000     -73.51320000
C      -43.55030000     -33.11980000     -72.76450000
H      -43.31320000     -29.84620000     -73.59980000
C      -42.29120000     -33.24980000     -73.35960000
C      -44.15360000     -34.34780000     -72.25540000
C      -43.39210000     -35.43400000     -72.74930000
S      -41.77530000     -31.70560000     -74.09740000
S      -41.88450000     -34.92880000     -73.61220000
H      -43.54090000     -36.44080000     -72.48830000
