40
Properties=species:S:1:pos:R:3 #=T CELL(abcABC):=T 1.889726e+02=T 90.00000=T Traj:=T positionsangstrom=T Step:=T 0=T Bead:=T pbc="F F F"
C      -46.97830000     -34.73690000     -67.52000000
C      -46.20490000     -35.52960000     -68.49510000
C      -46.77790000     -35.80520000     -69.74810000
C      -47.95320000     -35.19130000     -70.13190000
C      -48.61010000     -34.26690000     -69.25070000
C      -48.16470000     -34.18390000     -67.94920000
H      -46.66790000     -34.60320000     -66.50680000
H      -46.39700000     -36.49390000     -70.47710000
H      -49.45360000     -33.77860000     -69.65790000
H      -48.69280000     -33.48700000     -67.32760000
C      -48.47130000     -35.38730000     -71.51590000
H      -49.52360000     -35.84160000     -71.37200000
H      -47.84480000     -36.08760000     -72.06860000
C      -44.84740000     -36.01530000     -68.11120000
H      -44.36450000     -35.43860000     -67.24640000
H      -44.91750000     -37.04180000     -67.67390000
S      -48.80270000     -33.80970000     -72.44840000
S      -43.74550000     -36.15280000     -69.57030000
C      -47.04240000     -33.25060000     -72.78090000
H      -46.60020000     -34.26470000     -73.01780000
H      -47.09740000     -32.79930000     -73.74280000
C      -43.68560000     -34.39260000     -70.30440000
H      -42.78970000     -33.85960000     -69.94090000
H      -44.63090000     -33.89670000     -69.98390000
C      -43.72170000     -34.54880000     -71.81700000
H      -43.15780000     -35.37600000     -72.14070000
H      -44.77080000     -34.72360000     -72.02110000
C      -46.43720000     -32.41280000     -71.65590000
H      -46.10870000     -33.09190000     -70.90020000
H      -47.23340000     -31.78820000     -71.22860000
C      -45.31580000     -31.53740000     -72.23390000
C      -45.54850000     -30.23010000     -72.57280000
C      -43.98190000     -32.00170000     -72.48130000
H      -46.47330000     -29.68080000     -72.45310000
C      -43.22400000     -30.94340000     -72.98770000
C      -43.24550000     -33.29240000     -72.49080000
C      -41.95380000     -33.12390000     -72.97810000
S      -44.14210000     -29.43540000     -73.11660000
S      -41.66340000     -31.40880000     -73.58140000
H      -41.19740000     -33.88740000     -73.19270000
