40
Properties=species:S:1:pos:R:3 #=T CELL(abcABC):=T 1.889726e+02=T 90.00000=T Traj:=T positionsangstrom=T Step:=T 0=T Bead:=T pbc="F F F"
C      -46.72480000     -34.36670000     -67.75120000
C      -46.17480000     -35.39410000     -68.58200000
C      -46.83990000     -35.79020000     -69.71410000
C      -48.10740000     -35.31170000     -70.03470000
C      -48.74140000     -34.34700000     -69.17410000
C      -48.03290000     -33.87740000     -68.06240000
H      -46.14410000     -33.85640000     -66.96340000
H      -46.31650000     -36.30040000     -70.54530000
H      -49.66600000     -33.84080000     -69.51360000
H      -48.33980000     -33.03510000     -67.54960000
C      -48.59110000     -35.48910000     -71.38890000
H      -49.50650000     -36.10490000     -71.44020000
H      -47.89030000     -36.02300000     -72.00540000
C      -44.77940000     -35.90580000     -68.13340000
H      -44.33670000     -35.25380000     -67.40110000
H      -44.79240000     -36.89080000     -67.69940000
S      -48.92500000     -33.90990000     -72.34640000
S      -43.63440000     -36.11520000     -69.55500000
C      -47.27410000     -33.05780000     -72.79160000
H      -46.60030000     -33.70450000     -73.40830000
H      -47.48650000     -32.13440000     -73.25280000
C      -43.41070000     -34.48080000     -70.30350000
H      -42.38360000     -34.19240000     -70.13530000
H      -44.06260000     -33.75440000     -69.86280000
C      -43.60760000     -34.57750000     -71.85250000
H      -42.88820000     -35.35950000     -72.14200000
H      -44.67690000     -34.89940000     -72.18440000
C      -46.39620000     -32.57720000     -71.63300000
H      -45.92900000     -33.43100000     -71.14680000
H      -47.03230000     -32.09740000     -70.83690000
C      -45.29070000     -31.62980000     -72.01710000
C      -45.51980000     -30.29140000     -72.13580000
C      -44.03150000     -32.09380000     -72.57480000
H      -46.50920000     -29.80920000     -72.04860000
C      -43.33920000     -30.99790000     -73.21260000
C      -43.20330000     -33.32650000     -72.57880000
C      -41.97440000     -33.09550000     -73.24290000
S      -44.19520000     -29.51190000     -73.01110000
S      -41.71510000     -31.41050000     -73.72680000
H      -41.15740000     -33.83690000     -73.38170000
