40
Properties=species:S:1:pos:R:3 #=T CELL(abcABC):=T 1.889726e+02=T 90.00000=T Traj:=T positionsangstrom=T Step:=T 0=T Bead:=T pbc="F F F"
C      -48.31280000     -35.37810000     -68.53090000
C      -48.19670000     -34.45880000     -69.55590000
C      -47.46910000     -33.26410000     -69.38470000
C      -46.79600000     -32.97320000     -68.21730000
C      -46.82410000     -34.02400000     -67.24810000
C      -47.59480000     -35.17250000     -67.35260000
H      -48.89470000     -36.29330000     -68.59990000
H      -47.56320000     -32.55420000     -70.16450000
H      -46.37350000     -33.70420000     -66.33380000
H      -47.52770000     -35.98800000     -66.62220000
C      -46.15540000     -31.70880000     -67.76060000
H      -45.21250000     -31.82640000     -67.18850000
H      -46.94410000     -31.34850000     -66.99240000
C      -48.92910000     -34.77190000     -70.83810000
H      -49.73080000     -35.49140000     -70.64320000
H      -49.29880000     -33.95170000     -71.37890000
S      -45.96820000     -30.51220000     -69.10560000
S      -47.90100000     -35.84920000     -72.02410000
C      -44.84450000     -31.42630000     -70.26750000
H      -43.71470000     -31.12590000     -70.19380000
H      -44.87350000     -32.46310000     -69.89540000
C      -46.64190000     -34.64490000     -72.51090000
H      -47.09140000     -33.64180000     -72.42840000
H      -46.37560000     -34.94740000     -73.57160000
C      -45.35230000     -34.85140000     -71.66790000
H      -45.22890000     -34.30000000     -70.71400000
H      -45.24480000     -35.90920000     -71.48520000
C      -45.28130000     -31.46270000     -71.82210000
H      -45.60770000     -30.42780000     -71.95240000
H      -46.10230000     -32.19860000     -71.85230000
C      -44.19190000     -31.86000000     -72.77140000
C      -43.54930000     -30.93120000     -73.52140000
C      -43.61930000     -33.19760000     -72.92020000
H      -43.89280000     -29.94190000     -73.70150000
C      -42.47760000     -33.12120000     -73.72090000
C      -44.01540000     -34.52640000     -72.44790000
C      -42.99610000     -35.38780000     -72.82810000
S      -42.20730000     -31.59100000     -74.44550000
S      -41.71990000     -34.66310000     -73.90360000
H      -43.06670000     -36.44680000     -72.74780000
