40
Properties=species:S:1:pos:R:3 #=T CELL(abcABC):=T 1.889726e+02=T 90.00000=T Traj:=T positionsangstrom=T Step:=T 0=T Bead:=T pbc="F F F"
C      -47.61250000     -33.22290000     -73.70650000
C      -46.39840000     -33.56600000     -74.35590000
C      -45.39430000     -32.60080000     -74.38780000
C      -45.53870000     -31.42310000     -73.59900000
C      -46.66810000     -31.19990000     -72.87380000
C      -47.76200000     -32.10120000     -72.90780000
H      -48.47810000     -33.91040000     -73.65500000
H      -44.45100000     -32.86630000     -74.94970000
H      -46.63320000     -30.30510000     -72.30490000
H      -48.67000000     -31.82560000     -72.31450000
C      -44.42580000     -30.40880000     -73.42350000
H      -44.90140000     -29.42390000     -73.55330000
H      -43.60010000     -30.59910000     -74.20580000
C      -46.32420000     -34.87310000     -75.08310000
H      -47.22940000     -35.42050000     -75.12990000
H      -45.98970000     -34.79150000     -76.12870000
S      -43.70800000     -30.36150000     -71.77090000
S      -45.09170000     -36.06980000     -74.31130000
C      -43.06380000     -32.10620000     -71.73600000
H      -43.75830000     -32.69240000     -72.36400000
H      -42.16840000     -32.00860000     -72.45800000
C      -45.61550000     -36.15060000     -72.57490000
H      -45.22470000     -37.10970000     -72.17750000
H      -46.72870000     -36.16480000     -72.41740000
C      -44.98990000     -34.96350000     -71.78570000
H      -43.89470000     -35.02930000     -71.87250000
H      -45.25350000     -33.94520000     -72.18580000
C      -42.69530000     -32.68470000     -70.34420000
H      -42.02290000     -31.98830000     -69.79490000
H      -42.14590000     -33.63930000     -70.40580000
C      -43.89900000     -32.82290000     -69.38430000
C      -43.82130000     -32.25540000     -68.13530000
C      -44.98620000     -33.84070000     -69.41080000
H      -43.07930000     -31.53610000     -67.83830000
C      -45.77720000     -33.86130000     -68.30290000
C      -45.50070000     -34.82250000     -70.34430000
C      -46.55820000     -35.55340000     -69.83110000
S      -45.04340000     -32.90210000     -66.97550000
S      -46.95000000     -35.13880000     -68.19180000
H      -47.25290000     -36.28480000     -70.24920000
