40
Properties=species:S:1:pos:R:3 #=T CELL(abcABC):=T 1.889726e+02=T 90.00000=T Traj:=T positionsangstrom=T Step:=T 0=T Bead:=T pbc="F F F"
C      -47.71020000     -33.25530000     -73.72670000
C      -46.44110000     -33.37120000     -74.25610000
C      -45.43300000     -32.49060000     -73.83170000
C      -45.71830000     -31.43690000     -72.97620000
C      -47.10540000     -31.21900000     -72.60310000
C      -48.03380000     -32.16630000     -72.93780000
H      -48.49440000     -33.90210000     -74.06380000
H      -44.53420000     -32.64530000     -74.34850000
H      -47.35610000     -30.30770000     -71.99700000
H      -49.06070000     -32.11300000     -72.54340000
C      -44.74010000     -30.36090000     -72.77760000
H      -45.21320000     -29.54250000     -72.33280000
H      -44.14720000     -30.00560000     -73.61860000
C      -46.08550000     -34.44870000     -75.18400000
H      -46.92650000     -34.67890000     -75.90930000
H      -45.26820000     -34.01650000     -75.90010000
S      -43.39110000     -30.74840000     -71.48210000
S      -45.52790000     -36.05670000     -74.46000000
C      -42.65490000     -32.42740000     -71.79930000
H      -43.31640000     -33.09290000     -72.40700000
H      -41.67940000     -32.31480000     -72.35210000
C      -45.91640000     -36.02040000     -72.65810000
H      -46.02030000     -37.06800000     -72.44590000
H      -46.87040000     -35.45590000     -72.57820000
C      -44.94600000     -35.33880000     -71.74790000
H      -44.10910000     -36.03900000     -71.65750000
H      -44.69060000     -34.37330000     -72.23340000
C      -42.44350000     -33.22820000     -70.51080000
H      -41.51990000     -32.88270000     -69.97360000
H      -42.11340000     -34.23280000     -70.85810000
C      -43.59940000     -33.20520000     -69.57780000
C      -43.53920000     -32.45290000     -68.43880000
C      -44.81120000     -33.99290000     -69.58960000
H      -42.75870000     -31.68850000     -68.24380000
C      -45.59120000     -33.70540000     -68.48950000
C      -45.56800000     -34.95250000     -70.42210000
C      -46.64530000     -35.50260000     -69.83710000
S      -44.86510000     -32.56330000     -67.31860000
S      -47.02380000     -34.65830000     -68.30550000
H      -47.51380000     -36.03650000     -70.26990000
