40
Properties=species:S:1:pos:R:3 #=T CELL(abcABC):=T 1.889726e+02=T 90.00000=T Traj:=T positionsangstrom=T Step:=T 0=T Bead:=T pbc="F F F"
C      -47.62700000     -33.24790000     -73.15970000
C      -46.61680000     -33.13200000     -74.09010000
C      -45.69830000     -32.01190000     -74.03390000
C      -45.63380000     -31.28090000     -72.88500000
C      -46.61360000     -31.45490000     -71.94190000
C      -47.64110000     -32.37840000     -72.09240000
H      -48.48270000     -33.88170000     -73.38990000
H      -45.04540000     -31.83210000     -74.87110000
H      -46.56880000     -30.76750000     -71.00930000
H      -48.40150000     -32.43120000     -71.27510000
C      -44.43370000     -30.33010000     -72.72260000
H      -44.71760000     -29.29240000     -72.47610000
H      -43.80720000     -30.32970000     -73.66530000
C      -46.49680000     -34.24800000     -75.12500000
H      -47.47490000     -34.45530000     -75.47420000
H      -45.91750000     -33.86050000     -75.97390000
S      -43.43310000     -30.87030000     -71.29010000
S      -45.78170000     -35.87550000     -74.61370000
C      -42.94860000     -32.49160000     -71.99290000
H      -43.88940000     -32.80520000     -72.45350000
H      -42.16350000     -32.37070000     -72.78600000
C      -46.14500000     -36.05680000     -72.75140000
H      -46.23740000     -37.11160000     -72.56840000
H      -47.10370000     -35.46820000     -72.48200000
C      -44.97410000     -35.41550000     -71.90940000
H      -44.26150000     -36.19980000     -71.74440000
H      -44.47310000     -34.57440000     -72.47380000
C      -42.56240000     -33.47620000     -70.89210000
H      -41.60150000     -33.24580000     -70.42790000
H      -42.35560000     -34.44450000     -71.33640000
C      -43.46440000     -33.53520000     -69.71960000
C      -43.18270000     -32.86010000     -68.53720000
C      -44.87330000     -33.93100000     -69.74290000
H      -42.22430000     -32.46980000     -68.23190000
C      -45.51680000     -33.65140000     -68.56560000
C      -45.56500000     -34.92830000     -70.60780000
C      -46.81820000     -35.16620000     -70.05350000
S      -44.55210000     -32.88800000     -67.38360000
S      -47.08230000     -34.35690000     -68.49870000
H      -47.58170000     -35.74440000     -70.54720000
