40
Properties=species:S:1:pos:R:3 #=T CELL(abcABC):=T 1.889726e+02=T 90.00000=T Traj:=T positionsangstrom=T Step:=T 0=T Bead:=T pbc="F F F"
C      -47.80060000     -33.12390000     -72.99410000
C      -46.77470000     -33.27080000     -73.92820000
C      -45.64650000     -32.40700000     -73.82340000
C      -45.61720000     -31.37290000     -72.86880000
C      -46.66630000     -31.34300000     -71.87930000
C      -47.71650000     -32.21900000     -71.89600000
H      -48.50390000     -33.90340000     -73.07220000
H      -44.83760000     -32.53560000     -74.56460000
H      -46.55460000     -30.63980000     -71.00210000
H      -48.57550000     -32.14720000     -71.23320000
C      -44.53580000     -30.39460000     -72.78760000
H      -44.89360000     -29.43780000     -72.42150000
H      -44.01430000     -30.27110000     -73.71920000
C      -46.96390000     -34.24830000     -75.02630000
H      -48.01120000     -34.65510000     -75.05590000
H      -46.71620000     -33.63180000     -75.93240000
S      -43.24420000     -30.78410000     -71.47520000
S      -45.73590000     -35.69320000     -74.74270000
C      -42.63430000     -32.51840000     -71.97920000
H      -43.27760000     -32.86480000     -72.65540000
H      -41.68300000     -32.41780000     -72.52260000
C      -46.14820000     -35.90910000     -72.98320000
H      -46.20120000     -36.95540000     -72.77990000
H      -47.14260000     -35.52930000     -72.95330000
C      -45.15150000     -35.14440000     -72.07450000
H      -44.20390000     -35.71850000     -72.06650000
H      -44.84500000     -34.31970000     -72.66200000
C      -42.43430000     -33.47640000     -70.76300000
H      -41.50180000     -33.10820000     -70.35770000
H      -42.32240000     -34.54660000     -71.14780000
C      -43.50700000     -33.44610000     -69.71170000
C      -43.20050000     -32.87180000     -68.50930000
C      -44.79600000     -34.04600000     -69.72600000
H      -42.32210000     -32.32520000     -68.19820000
C      -45.42360000     -33.87240000     -68.51460000
C      -45.62380000     -34.74350000     -70.69040000
C      -46.89490000     -34.98240000     -70.19130000
S      -44.48330000     -33.07850000     -67.26960000
S      -47.08330000     -34.53460000     -68.48260000
H      -47.69850000     -35.56360000     -70.66210000
