40
Properties=species:S:1:pos:R:3 #=T CELL(abcABC):=T 1.889726e+02=T 90.00000=T Traj:=T positionsangstrom=T Step:=T 0=T Bead:=T pbc="F F F"
C      -47.63010000     -33.24960000     -73.74610000
C      -46.41710000     -33.44190000     -74.49010000
C      -45.34770000     -32.57550000     -74.31100000
C      -45.48550000     -31.45020000     -73.50180000
C      -46.70780000     -31.24610000     -72.82770000
C      -47.76340000     -32.13600000     -72.89870000
H      -48.46610000     -33.94100000     -73.93650000
H      -44.47110000     -32.83480000     -74.88450000
H      -46.61670000     -30.45930000     -72.10240000
H      -48.63270000     -31.82750000     -72.33970000
C      -44.37630000     -30.48600000     -73.37060000
H      -44.73400000     -29.39880000     -73.41630000
H      -43.57990000     -30.60060000     -74.10020000
C      -46.30690000     -34.70220000     -75.35920000
H      -47.30560000     -35.15310000     -75.60850000
H      -45.76040000     -34.40610000     -76.23050000
S      -43.66830000     -30.58810000     -71.68290000
S      -45.31790000     -36.00120000     -74.39160000
C      -42.86770000     -32.26090000     -71.72630000
H      -43.48100000     -32.85500000     -72.45500000
H      -41.86600000     -32.13430000     -72.29330000
C      -45.87810000     -35.99620000     -72.61030000
H      -45.67780000     -37.08370000     -72.37220000
H      -46.93200000     -35.80790000     -72.45060000
C      -45.07900000     -35.07460000     -71.73110000
H      -43.98790000     -35.38860000     -71.76560000
H      -45.00860000     -34.04540000     -72.09120000
C      -42.62740000     -32.76890000     -70.30240000
H      -41.89330000     -32.14020000     -69.81740000
H      -42.18790000     -33.77990000     -70.46160000
C      -43.79170000     -32.98040000     -69.36060000
C      -43.72640000     -32.26960000     -68.18180000
C      -44.92710000     -33.88140000     -69.41130000
H      -43.00180000     -31.53530000     -67.86740000
C      -45.61390000     -33.89780000     -68.14430000
C      -45.52010000     -34.82860000     -70.31500000
C      -46.50170000     -35.56880000     -69.72600000
S      -45.01460000     -32.74540000     -67.05200000
S      -46.99430000     -34.99640000     -68.17550000
H      -46.97340000     -36.37900000     -70.19610000
