40
Properties=species:S:1:pos:R:3 #=T CELL(abcABC):=T 1.889726e+02=T 90.00000=T Traj:=T positionsangstrom=T Step:=T 0=T Bead:=T pbc="F F F"
C      -45.84670000     -35.87330000     -68.29790000
C      -46.95230000     -35.25140000     -68.96620000
C      -47.03170000     -33.85510000     -68.92750000
C      -45.99800000     -33.02270000     -68.35290000
C      -44.85960000     -33.65980000     -67.90720000
C      -44.78750000     -35.05040000     -67.88280000
H      -45.77140000     -36.97760000     -68.29450000
H      -47.87170000     -33.19550000     -69.25760000
H      -44.13130000     -33.00570000     -67.35830000
H      -44.00670000     -35.55150000     -67.32100000
C      -46.22030000     -31.51920000     -68.14470000
H      -45.18900000     -31.08860000     -68.02450000
H      -46.70050000     -31.41140000     -67.18770000
C      -48.04410000     -35.98650000     -69.58210000
H      -48.25210000     -36.95860000     -69.09560000
H      -48.95770000     -35.35700000     -69.66480000
S      -47.22510000     -30.62270000     -69.36390000
S      -47.60100000     -36.61000000     -71.27310000
C      -45.89970000     -30.32970000     -70.67850000
H      -46.22200000     -29.52910000     -71.40690000
H      -45.10820000     -29.98230000     -70.13650000
C      -46.69470000     -35.13240000     -72.00930000
H      -47.04310000     -34.20190000     -71.59450000
H      -46.95200000     -35.24730000     -73.03500000
C      -45.13380000     -35.19290000     -71.82830000
H      -44.86270000     -35.01870000     -70.74760000
H      -44.81600000     -36.20840000     -71.97980000
C      -45.80960000     -31.67600000     -71.45780000
H      -46.81280000     -31.78070000     -71.94790000
H      -45.62320000     -32.55610000     -70.89440000
C      -44.70330000     -31.71930000     -72.47370000
C      -44.10780000     -30.59670000     -73.04270000
C      -44.16010000     -32.91180000     -73.00630000
H      -44.29380000     -29.54390000     -72.90520000
C      -43.25490000     -32.68140000     -74.07460000
C      -44.25390000     -34.33670000     -72.75900000
C      -43.48500000     -35.07100000     -73.61410000
S      -42.90130000     -30.97820000     -74.29780000
S      -42.52150000     -34.10330000     -74.73530000
H      -43.65340000     -36.12610000     -73.82740000
