40
Properties=species:S:1:pos:R:3 #=T CELL(abcABC):=T 1.889726e+02=T 90.00000=T Traj:=T positionsangstrom=T Step:=T 0=T Bead:=T pbc="F F F"
C      -43.05970000     -30.38900000     -70.87130000
C      -43.15850000     -31.13400000     -69.69350000
C      -44.44920000     -31.20290000     -69.08290000
C      -45.56740000     -30.56170000     -69.67290000
C      -45.42260000     -29.88420000     -70.82180000
C      -44.13600000     -29.69720000     -71.38670000
H      -42.07100000     -30.30420000     -71.33420000
H      -44.54460000     -31.77710000     -68.15040000
H      -46.24060000     -29.36010000     -71.28270000
H      -43.92660000     -29.10630000     -72.23020000
C      -46.91540000     -30.75040000     -69.01890000
H      -47.70130000     -30.38790000     -69.70600000
H      -47.01130000     -30.11300000     -68.05840000
C      -42.02260000     -31.91280000     -69.14220000
H      -41.12010000     -31.69700000     -69.63690000
H      -41.85480000     -31.73070000     -68.08080000
S      -47.38940000     -32.38740000     -68.30510000
S      -42.11950000     -33.72590000     -69.30770000
C      -46.90310000     -33.60550000     -69.70260000
H      -45.80480000     -33.50370000     -69.66820000
H      -47.11160000     -34.62690000     -69.39090000
C      -42.62170000     -34.08890000     -71.15830000
H      -42.26040000     -35.09770000     -71.13550000
H      -42.11030000     -33.44760000     -71.93400000
C      -44.11080000     -34.16060000     -71.27040000
H      -44.53440000     -34.79630000     -70.48720000
H      -44.57260000     -33.19590000     -71.24860000
C      -47.39370000     -33.19170000     -71.05090000
H      -46.92710000     -32.21020000     -71.32700000
H      -48.38840000     -32.77290000     -71.06330000
C      -47.25960000     -34.21980000     -72.24660000
C      -48.39260000     -34.51550000     -72.98310000
C      -46.04690000     -34.72010000     -72.90660000
H      -49.42530000     -34.41400000     -72.63430000
C      -46.36150000     -35.55110000     -74.02070000
C      -44.64810000     -34.78700000     -72.59660000
C      -43.92050000     -35.61070000     -73.42230000
S      -48.11590000     -35.61980000     -74.24640000
S      -45.00110000     -36.38820000     -74.60420000
H      -42.87610000     -35.89100000     -73.49290000
