40
Properties=species:S:1:pos:R:3 #=T CELL(abcABC):=T 1.889726e+02=T 90.00000=T Traj:=T positionsangstrom=T Step:=T 0=T Bead:=T pbc="F F F"
C      -47.94740000     -33.85750000     -73.77180000
C      -46.64830000     -33.65840000     -74.35900000
C      -45.90250000     -32.51640000     -74.09010000
C      -46.34410000     -31.47130000     -73.23170000
C      -47.62280000     -31.69400000     -72.68850000
C      -48.45460000     -32.83450000     -72.97190000
H      -48.41690000     -34.84640000     -73.85360000
H      -44.90560000     -32.44700000     -74.55840000
H      -48.00360000     -30.95520000     -71.95370000
H      -49.41020000     -32.88460000     -72.55710000
C      -45.60940000     -30.21960000     -72.91210000
H      -46.28990000     -29.37400000     -72.73470000
H      -45.06010000     -29.88230000     -73.78690000
C      -46.04190000     -34.90080000     -74.93630000
H      -46.75260000     -35.71210000     -74.93410000
H      -45.95560000     -34.63060000     -75.97800000
S      -44.29570000     -30.35400000     -71.55210000
S      -44.41400000     -35.52940000     -74.15090000
C      -43.36570000     -31.90900000     -71.89040000
H      -44.17090000     -32.61560000     -72.26320000
H      -42.64160000     -31.75940000     -72.77500000
C      -44.91610000     -36.24380000     -72.51960000
H      -44.96930000     -37.34820000     -72.49210000
H      -45.87620000     -35.81540000     -72.38710000
C      -44.02120000     -35.68400000     -71.40710000
H      -43.40470000     -36.51610000     -71.25980000
H      -43.33640000     -34.95870000     -71.87440000
C      -42.63110000     -32.48350000     -70.63440000
H      -41.93170000     -31.78440000     -70.18830000
H      -42.07180000     -33.35870000     -70.85230000
C      -43.65060000     -32.78650000     -69.55770000
C      -43.89490000     -31.91640000     -68.48170000
C      -44.56360000     -33.91420000     -69.52180000
H      -43.35280000     -31.03190000     -68.32490000
C      -45.41010000     -33.85470000     -68.40590000
C      -44.79960000     -35.17630000     -70.26330000
C      -45.86240000     -35.88160000     -69.75440000
S      -45.16770000     -32.47780000     -67.43970000
S      -46.62550000     -35.05960000     -68.43320000
H      -46.35550000     -36.74290000     -70.24900000
