40
Properties=species:S:1:pos:R:3 #=T CELL(abcABC):=T 1.889726e+02=T 90.00000=T Traj:=T positionsangstrom=T Step:=T 0=T Bead:=T pbc="F F F"
C      -46.31800000     -35.35220000     -68.70180000
C      -47.44580000     -34.64830000     -69.10240000
C      -47.49230000     -33.27240000     -68.78480000
C      -46.48760000     -32.58480000     -68.10300000
C      -45.37420000     -33.34200000     -67.71620000
C      -45.22530000     -34.70130000     -68.05240000
H      -46.26100000     -36.43210000     -68.87780000
H      -48.32590000     -32.72910000     -69.21410000
H      -44.51260000     -32.94110000     -67.15480000
H      -44.34830000     -35.23570000     -67.72470000
C      -46.55730000     -31.08090000     -67.79950000
H      -45.74520000     -30.80310000     -67.17890000
H      -47.52140000     -30.93020000     -67.30610000
C      -48.45610000     -35.23940000     -70.10340000
H      -49.19280000     -35.75310000     -69.52130000
H      -48.83150000     -34.35110000     -70.58460000
S      -46.50830000     -30.07340000     -69.27110000
S      -47.68050000     -36.46000000     -71.21140000
C      -45.05780000     -30.69090000     -70.25800000
H      -44.66870000     -29.88350000     -70.79810000
H      -44.35520000     -31.08730000     -69.45900000
C      -46.60660000     -35.32330000     -72.21190000
H      -47.08140000     -34.32430000     -72.30580000
H      -46.69690000     -35.74260000     -73.19290000
C      -45.10340000     -35.37730000     -71.77260000
H      -45.11260000     -34.91370000     -70.77880000
H      -44.89940000     -36.45860000     -71.49820000
C      -45.40460000     -31.89060000     -71.20830000
H      -46.37070000     -31.68330000     -71.64640000
H      -45.51750000     -32.83200000     -70.66380000
C      -44.40170000     -32.07920000     -72.33580000
C      -43.70550000     -31.03100000     -72.93250000
C      -44.06480000     -33.34460000     -73.02060000
H      -43.83250000     -29.99950000     -72.62830000
C      -43.27630000     -33.09030000     -74.20340000
C      -44.23820000     -34.75280000     -72.76330000
C      -43.54920000     -35.54760000     -73.72660000
S      -42.83610000     -31.46380000     -74.43160000
S      -42.63960000     -34.54380000     -74.84800000
H      -43.45750000     -36.58740000     -73.71350000
