40
Properties=species:S:1:pos:R:3 #=T CELL(abcABC):=T 1.889726e+02=T 90.00000=T Traj:=T positionsangstrom=T Step:=T 0=T Bead:=T pbc="F F F"
C      -46.68420000     -35.26300000     -68.21830000
C      -47.41390000     -34.52170000     -69.09030000
C      -47.26580000     -33.10430000     -68.98980000
C      -46.44620000     -32.50360000     -68.01570000
C      -45.65930000     -33.32330000     -67.14610000
C      -45.79040000     -34.68680000     -67.30230000
H      -46.92970000     -36.28870000     -68.04350000
H      -47.85600000     -32.47590000     -69.64620000
H      -45.15990000     -32.83500000     -66.32000000
H      -45.23280000     -35.35350000     -66.71800000
C      -46.51910000     -31.04900000     -67.79400000
H      -45.66930000     -30.77660000     -67.17000000
H      -47.50200000     -30.73150000     -67.37510000
C      -48.46560000     -35.16340000     -69.98710000
H      -49.11580000     -35.64250000     -69.26450000
H      -49.10970000     -34.42920000     -70.50910000
S      -46.28420000     -30.08930000     -69.32410000
S      -47.79540000     -36.38760000     -71.20590000
C      -44.90790000     -30.85270000     -70.22490000
H      -44.27600000     -30.07690000     -70.48060000
H      -44.42160000     -31.67410000     -69.59600000
C      -46.91690000     -35.35220000     -72.33990000
H      -47.39110000     -34.37710000     -72.36490000
H      -47.07960000     -35.85890000     -73.30770000
C      -45.42010000     -35.31840000     -71.88000000
H      -45.34990000     -34.82210000     -70.88420000
H      -45.18310000     -36.33850000     -71.57360000
C      -45.36700000     -31.63000000     -71.62050000
H      -46.14070000     -31.01620000     -72.14570000
H      -45.96100000     -32.48480000     -71.32320000
C      -44.33720000     -31.97090000     -72.66660000
C      -43.54840000     -31.04230000     -73.19440000
C      -44.03110000     -33.30620000     -73.19940000
H      -43.50500000     -29.99930000     -72.90780000
C      -43.07950000     -33.23560000     -74.19590000
C      -44.36580000     -34.74050000     -72.90560000
C      -43.65860000     -35.60990000     -73.74100000
S      -42.53960000     -31.59180000     -74.53250000
S      -42.54610000     -34.75050000     -74.83680000
H      -43.47480000     -36.69760000     -73.64100000
