40
Properties=species:S:1:pos:R:3 #=T CELL(abcABC):=T 1.889726e+02=T 90.00000=T Traj:=T positionsangstrom=T Step:=T 0=T Bead:=T pbc="F F F"
C      -46.38110000     -35.28480000     -68.54590000
C      -47.45050000     -34.56920000     -69.11940000
C      -47.41770000     -33.18720000     -69.00620000
C      -46.49060000     -32.56960000     -68.13600000
C      -45.48340000     -33.32960000     -67.52780000
C      -45.44360000     -34.70300000     -67.72120000
H      -46.34500000     -36.37360000     -68.75290000
H      -48.24910000     -32.62990000     -69.44090000
H      -44.71270000     -32.84390000     -66.94210000
H      -44.70050000     -35.28090000     -67.14170000
C      -46.53970000     -31.09500000     -67.76250000
H      -45.77080000     -30.77600000     -67.00380000
H      -47.50850000     -30.80280000     -67.27840000
C      -48.43970000     -35.31120000     -69.96170000
H      -49.15010000     -35.93100000     -69.42930000
H      -49.18400000     -34.62220000     -70.41240000
S      -46.41040000     -30.06580000     -69.36300000
S      -47.72290000     -36.46610000     -71.17360000
C      -45.02620000     -30.93130000     -70.27990000
H      -44.51740000     -30.09430000     -70.81960000
H      -44.30790000     -31.24940000     -69.52230000
C      -46.68030000     -35.33790000     -72.16190000
H      -46.94250000     -34.28140000     -71.96340000
H      -46.81710000     -35.58600000     -73.18840000
C      -45.17700000     -35.44930000     -71.77410000
H      -44.96090000     -34.96150000     -70.83840000
H      -44.86350000     -36.47860000     -71.55140000
C      -45.42470000     -31.86410000     -71.36250000
H      -46.27880000     -31.36930000     -71.80940000
H      -45.78620000     -32.88030000     -71.01230000
C      -44.41010000     -32.04740000     -72.45780000
C      -43.77220000     -30.99550000     -73.07720000
C      -44.00790000     -33.33590000     -73.04430000
H      -43.97980000     -29.94500000     -72.95630000
C      -43.11890000     -33.09850000     -74.08840000
C      -44.17960000     -34.73110000     -72.77670000
C      -43.61660000     -35.51830000     -73.78430000
S      -42.69060000     -31.44570000     -74.39740000
S      -42.69970000     -34.55970000     -74.91890000
H      -43.61660000     -36.58410000     -73.77930000
