40
Properties=species:S:1:pos:R:3 #=T CELL(abcABC):=T 1.889726e+02=T 90.00000=T Traj:=T positionsangstrom=T Step:=T 0=T Bead:=T pbc="F F F"
C      -47.66150000     -34.50230000     -72.81530000
C      -46.57740000     -34.19180000     -73.60250000
C      -45.94150000     -32.93720000     -73.51870000
C      -46.58780000     -31.89050000     -72.80140000
C      -47.65230000     -32.18690000     -71.98920000
C      -48.14660000     -33.47470000     -71.97790000
H      -47.95160000     -35.51420000     -72.91550000
H      -45.19050000     -32.68120000     -74.29020000
H      -48.15950000     -31.32280000     -71.47840000
H      -49.05870000     -33.69970000     -71.46090000
C      -46.10220000     -30.53290000     -72.92700000
H      -46.96060000     -29.84330000     -72.83460000
H      -45.61130000     -30.46960000     -73.93640000
C      -46.09260000     -35.13490000     -74.70850000
H      -46.83330000     -35.95410000     -74.55890000
H      -46.32810000     -34.60540000     -75.63730000
S      -44.82360000     -29.99390000     -71.62800000
S      -44.27530000     -35.54640000     -74.68070000
C      -43.40200000     -31.14370000     -71.95360000
H      -43.85660000     -31.98570000     -72.60130000
H      -42.52610000     -30.69950000     -72.44560000
C      -44.22010000     -36.03670000     -72.87920000
H      -43.56850000     -36.84530000     -72.85540000
H      -45.15960000     -36.40730000     -72.56110000
C      -43.79900000     -34.95210000     -71.89500000
H      -42.81890000     -35.06730000     -71.51040000
H      -43.72010000     -33.95450000     -72.42020000
C      -42.90760000     -31.83980000     -70.67960000
H      -42.24210000     -31.07620000     -70.11080000
H      -42.23370000     -32.62220000     -70.92580000
C      -43.97680000     -32.31050000     -69.73690000
C      -44.44320000     -31.58770000     -68.70850000
C      -44.60670000     -33.66660000     -69.74350000
H      -44.28730000     -30.53750000     -68.61560000
C      -45.38810000     -33.93000000     -68.57410000
C      -44.60850000     -34.80250000     -70.61430000
C      -45.30840000     -35.87060000     -70.10040000
S      -45.49450000     -32.46230000     -67.56700000
S      -46.03820000     -35.50150000     -68.55340000
H      -45.45370000     -36.85640000     -70.60790000
