40
Properties=species:S:1:pos:R:3 #=T CELL(abcABC):=T 1.889726e+02=T 90.00000=T Traj:=T positionsangstrom=T Step:=T 0=T Bead:=T pbc="F F F"
C      -47.49540000     -34.64310000     -72.00840000
C      -46.91500000     -34.26600000     -73.27090000
C      -46.70230000     -32.90550000     -73.65860000
C      -47.13180000     -31.90560000     -72.79860000
C      -47.75240000     -32.22840000     -71.58170000
C      -48.00000000     -33.58210000     -71.25050000
H      -47.76710000     -35.63960000     -71.68780000
H      -46.16170000     -32.65870000     -74.58650000
H      -48.12280000     -31.40010000     -70.94000000
H      -48.26730000     -33.84030000     -70.19720000
C      -46.62060000     -30.44000000     -73.02600000
H      -47.42960000     -29.83160000     -72.75070000
H      -46.18200000     -30.28700000     -74.09250000
C      -46.35270000     -35.29050000     -74.14150000
H      -46.56110000     -36.30240000     -73.70220000
H      -46.78230000     -35.42320000     -75.14920000
S      -45.20790000     -29.84800000     -71.93590000
S      -44.53890000     -35.12460000     -74.40240000
C      -43.79210000     -31.07860000     -72.21850000
H      -44.24780000     -32.02470000     -72.54790000
H      -43.07870000     -30.72380000     -72.92380000
C      -43.76730000     -36.00620000     -73.00090000
H      -42.95130000     -36.46340000     -73.47390000
H      -44.50860000     -36.69220000     -72.69800000
C      -43.18230000     -35.06860000     -71.96750000
H      -42.26700000     -35.49210000     -71.59680000
H      -42.89350000     -34.09290000     -72.46650000
C      -43.08300000     -31.50940000     -70.86780000
H      -42.76080000     -30.60980000     -70.29160000
H      -42.21170000     -32.17310000     -71.00270000
C      -44.02190000     -32.27510000     -69.95890000
C      -44.70040000     -31.54040000     -68.98920000
C      -44.29150000     -33.72580000     -69.86470000
H      -44.62700000     -30.48180000     -68.83420000
C      -45.07500000     -34.05390000     -68.78300000
C      -43.98460000     -34.86830000     -70.69530000
C      -44.45740000     -35.99380000     -70.14310000
S      -45.54040000     -32.64040000     -67.87390000
S      -45.40850000     -35.71600000     -68.65890000
H      -44.25160000     -36.92750000     -70.68090000
