40
Properties=species:S:1:pos:R:3 #=T CELL(abcABC):=T 1.889726e+02=T 90.00000=T Traj:=T positionsangstrom=T Step:=T 0=T Bead:=T pbc="F F F"
C      -47.61610000     -34.62770000     -71.70950000
C      -46.72560000     -34.46290000     -72.79060000
C      -46.31870000     -33.16900000     -73.18510000
C      -46.92570000     -32.07590000     -72.55990000
C      -47.84400000     -32.17310000     -71.52060000
C      -48.13940000     -33.44820000     -71.08490000
H      -47.93450000     -35.56950000     -71.25950000
H      -45.53910000     -33.00940000     -73.97410000
H      -48.33150000     -31.37590000     -70.98210000
H      -49.01500000     -33.64140000     -70.42380000
C      -46.51490000     -30.61990000     -72.94260000
H      -47.35890000     -29.96580000     -72.85340000
H      -46.21260000     -30.49450000     -73.95770000
C      -46.11830000     -35.64150000     -73.51470000
H      -45.93160000     -36.48110000     -72.76960000
H      -46.89110000     -36.07930000     -74.10480000
S      -45.33320000     -29.91290000     -71.70930000
S      -44.55150000     -35.38080000     -74.52180000
C      -43.86220000     -30.85420000     -71.99540000
H      -44.05820000     -31.62730000     -72.77680000
H      -43.19820000     -30.18520000     -72.53540000
C      -43.17020000     -35.36010000     -73.38170000
H      -42.31540000     -35.31700000     -74.18170000
H      -42.96640000     -36.32810000     -72.82160000
C      -43.30930000     -34.27390000     -72.31300000
H      -42.34480000     -33.89000000     -72.02120000
H      -43.86090000     -33.44600000     -72.73600000
C      -43.11420000     -31.29900000     -70.71160000
H      -42.71220000     -30.48600000     -70.14390000
H      -42.31840000     -31.90470000     -71.03440000
C      -44.05030000     -32.15800000     -69.88810000
C      -44.79480000     -31.65330000     -68.79360000
C      -44.40760000     -33.60660000     -70.08280000
H      -44.89540000     -30.60040000     -68.48140000
C      -45.26810000     -34.09650000     -69.10950000
C      -44.05670000     -34.63660000     -71.01780000
C      -44.37520000     -35.85130000     -70.60760000
S      -45.70620000     -32.86150000     -67.93550000
S      -45.40230000     -35.81060000     -69.13220000
H      -44.23860000     -36.77490000     -71.06240000
