40
Properties=species:S:1:pos:R:3 #=T CELL(abcABC):=T 1.889726e+02=T 90.00000=T Traj:=T positionsangstrom=T Step:=T 0=T Bead:=T pbc="F F F"
C      -47.19640000     -35.23000000     -67.98590000
C      -47.71680000     -34.34400000     -68.97430000
C      -47.31430000     -33.00130000     -69.04870000
C      -46.41750000     -32.50120000     -68.10460000
C      -45.90270000     -33.39380000     -67.15580000
C      -46.16790000     -34.76970000     -67.22820000
H      -47.40470000     -36.28530000     -68.07930000
H      -47.72700000     -32.29650000     -69.75010000
H      -45.15230000     -33.08160000     -66.45250000
H      -45.66580000     -35.51290000     -66.51800000
C      -46.12540000     -31.01230000     -68.05920000
H      -45.20840000     -30.97240000     -67.52960000
H      -46.86160000     -30.54290000     -67.41880000
C      -48.76310000     -34.90540000     -69.90700000
H      -49.28660000     -35.67610000     -69.31500000
H      -49.39270000     -34.20640000     -70.44640000
S      -45.92830000     -30.12100000     -69.59280000
S      -48.03040000     -35.91240000     -71.24630000
C      -44.76920000     -31.24330000     -70.51980000
H      -43.81200000     -30.70960000     -70.66320000
H      -44.55450000     -32.16300000     -69.90660000
C      -46.91280000     -34.77890000     -72.22650000
H      -47.32790000     -33.76280000     -72.02190000
H      -46.83670000     -34.92510000     -73.37010000
C      -45.51820000     -34.90940000     -71.64950000
H      -45.37710000     -34.18240000     -70.78920000
H      -45.40730000     -35.93530000     -71.34060000
C      -45.39690000     -31.64580000     -71.93440000
H      -45.98070000     -30.77130000     -72.21080000
H      -46.11230000     -32.49440000     -71.84080000
C      -44.39970000     -32.01400000     -73.02970000
C      -43.65250000     -31.13270000     -73.79010000
C      -43.91920000     -33.32090000     -73.22370000
H      -43.81430000     -30.08460000     -73.94850000
C      -42.85330000     -33.49800000     -74.07590000
C      -44.39230000     -34.60150000     -72.62690000
C      -43.59170000     -35.63830000     -73.07960000
S      -42.43080000     -31.95340000     -74.76730000
S      -42.34000000     -35.15860000     -74.21260000
H      -43.79670000     -36.64080000     -72.93800000
