40
Properties=species:S:1:pos:R:3 #=T CELL(abcABC):=T 1.889726e+02=T 90.00000=T Traj:=T positionsangstrom=T Step:=T 0=T Bead:=T pbc="F F F"
C      -46.33180000     -34.09150000     -67.80520000
C      -45.80360000     -35.11020000     -68.57180000
C      -46.57130000     -35.49340000     -69.72990000
C      -47.91480000     -35.09540000     -69.89880000
C      -48.51080000     -34.28120000     -68.98160000
C      -47.68720000     -33.63630000     -68.05060000
H      -45.64540000     -33.52450000     -67.16680000
H      -46.07230000     -36.20500000     -70.40840000
H      -49.59750000     -33.97810000     -69.03590000
H      -48.11910000     -32.82920000     -67.45710000
C      -48.65290000     -35.68150000     -71.04850000
H      -49.71360000     -35.87850000     -70.66160000
H      -48.20630000     -36.54360000     -71.43150000
C      -44.42720000     -35.62500000     -68.27050000
H      -43.84020000     -34.99260000     -67.61280000
H      -44.59360000     -36.59830000     -67.63250000
S      -48.85700000     -34.44230000     -72.44600000
S      -43.47700000     -36.16860000     -69.76210000
C      -47.33650000     -33.46770000     -72.63570000
H      -46.48210000     -34.09490000     -72.93850000
H      -47.53620000     -32.77980000     -73.38910000
C      -43.10460000     -34.55160000     -70.45920000
H      -42.03990000     -34.36800000     -70.44230000
H      -43.54090000     -33.71290000     -69.84180000
C      -43.71280000     -34.53160000     -71.93080000
H      -43.22900000     -35.30540000     -72.49250000
H      -44.80190000     -34.74820000     -71.84790000
C      -46.63070000     -32.64220000     -71.52730000
H      -46.19730000     -33.29770000     -70.79940000
H      -47.24850000     -32.02080000     -70.83550000
C      -45.54760000     -31.71670000     -72.06750000
C      -45.81830000     -30.37000000     -72.23150000
C      -44.19800000     -32.02060000     -72.49160000
H      -46.75220000     -29.91350000     -72.12960000
C      -43.48260000     -30.86210000     -72.97400000
C      -43.38870000     -33.21740000     -72.59230000
C      -42.17410000     -32.99200000     -73.14540000
S      -44.55210000     -29.51100000     -73.15200000
S      -41.88340000     -31.28280000     -73.62790000
H      -41.45380000     -33.76860000     -73.49610000
