40
Properties=species:S:1:pos:R:3 #=T CELL(abcABC):=T 1.889726e+02=T 90.00000=T Traj:=T positionsangstrom=T Step:=T 0=T Bead:=T pbc="F F F"
C      -47.35400000     -34.60190000     -71.82390000
C      -46.68200000     -34.19950000     -73.00260000
C      -46.61650000     -32.83140000     -73.29530000
C      -47.07210000     -31.94410000     -72.34270000
C      -47.75080000     -32.32860000     -71.14240000
C      -47.94410000     -33.68340000     -70.97130000
H      -47.44800000     -35.62970000     -71.69180000
H      -46.11720000     -32.48790000     -74.12160000
H      -48.05420000     -31.61930000     -70.37170000
H      -48.41080000     -34.12530000     -70.09980000
C      -46.84340000     -30.50440000     -72.54160000
H      -47.56760000     -29.87860000     -72.09380000
H      -46.89670000     -30.19010000     -73.59110000
C      -46.10210000     -35.28520000     -73.89500000
H      -46.00210000     -36.26130000     -73.33380000
H      -46.80000000     -35.54710000     -74.67140000
S      -45.24610000     -29.93520000     -71.76680000
S      -44.41610000     -34.90910000     -74.64070000
C      -43.95130000     -31.05930000     -72.32920000
H      -44.38740000     -31.87850000     -73.02690000
H      -43.23210000     -30.56210000     -72.98300000
C      -43.39620000     -35.51490000     -73.29210000
H      -42.46210000     -35.93270000     -73.72190000
H      -43.85970000     -36.40020000     -72.96140000
C      -43.01110000     -34.62120000     -72.12750000
H      -41.98550000     -34.80140000     -71.63970000
H      -43.08480000     -33.55340000     -72.31180000
C      -43.24890000     -31.56430000     -71.03320000
H      -42.66960000     -30.74640000     -70.48210000
H      -42.45260000     -32.26580000     -71.21520000
C      -44.18190000     -32.29260000     -69.99730000
C      -44.71480000     -31.72720000     -68.87850000
C      -44.42780000     -33.71920000     -70.09380000
H      -44.85580000     -30.66180000     -68.55060000
C      -45.23360000     -34.17210000     -68.99500000
C      -43.94570000     -34.81530000     -70.92780000
C      -44.57280000     -35.97450000     -70.48580000
S      -45.64840000     -32.89440000     -67.87800000
S      -45.50240000     -35.84240000     -69.03400000
H      -44.34930000     -36.96480000     -71.00200000
