40
Properties=species:S:1:pos:R:3 #=T CELL(abcABC):=T 1.889726e+02=T 90.00000=T Traj:=T positionsangstrom=T Step:=T 0=T Bead:=T pbc="F F F"
C      -47.52450000     -34.65140000     -71.85800000
C      -46.89670000     -34.29090000     -73.08320000
C      -46.66160000     -32.93270000     -73.31690000
C      -46.95270000     -31.97530000     -72.34220000
C      -47.61280000     -32.32550000     -71.14000000
C      -47.93620000     -33.68100000     -70.93540000
H      -47.61350000     -35.70000000     -71.56580000
H      -46.25150000     -32.73580000     -74.29060000
H      -47.90010000     -31.48430000     -70.46800000
H      -48.45120000     -34.01780000     -70.06340000
C      -46.76050000     -30.54090000     -72.69680000
H      -47.62730000     -29.95550000     -72.34450000
H      -46.52480000     -30.44440000     -73.78190000
C      -46.31550000     -35.27960000     -74.04820000
H      -46.27960000     -36.33210000     -73.72780000
H      -46.91900000     -35.30590000     -75.00520000
S      -45.32770000     -29.64020000     -71.79530000
S      -44.60880000     -34.91820000     -74.49870000
C      -44.00200000     -30.96200000     -72.09820000
H      -44.52270000     -31.85470000     -72.43000000
H      -43.32620000     -30.47400000     -72.78540000
C      -43.37770000     -35.67470000     -73.32490000
H      -42.52440000     -35.83010000     -73.99800000
H      -43.73970000     -36.68580000     -72.97490000
C      -42.99230000     -34.78750000     -72.09320000
H      -42.00110000     -35.04750000     -71.93900000
H      -42.88340000     -33.77120000     -72.50480000
C      -43.18790000     -31.36320000     -70.85630000
H      -43.00770000     -30.44410000     -70.34580000
H      -42.31260000     -31.84630000     -71.26940000
C      -43.99270000     -32.33920000     -69.98510000
C      -44.56350000     -31.76340000     -68.92850000
C      -44.32690000     -33.81060000     -70.13150000
H      -44.39090000     -30.72450000     -68.55720000
C      -45.11980000     -34.17240000     -69.03030000
C      -43.93900000     -34.87950000     -70.96060000
C      -44.58080000     -36.04150000     -70.56700000
S      -45.54570000     -32.88300000     -67.89080000
S      -45.43850000     -35.90060000     -69.00780000
H      -44.58080000     -36.92440000     -71.22210000
