40
Properties=species:S:1:pos:R:3 #=T CELL(abcABC):=T 1.889726e+02=T 90.00000=T Traj:=T positionsangstrom=T Step:=T 0=T Bead:=T pbc="F F F"
C      -46.26670000     -34.11240000     -67.79370000
C      -45.82740000     -35.21070000     -68.57220000
C      -46.63260000     -35.66700000     -69.59820000
C      -47.89150000     -35.11320000     -69.82010000
C      -48.42520000     -34.13040000     -68.98930000
C      -47.58070000     -33.62400000     -67.98670000
H      -45.52040000     -33.92980000     -66.98810000
H      -46.23340000     -36.43410000     -70.27420000
H      -49.43470000     -33.81540000     -69.07360000
H      -48.01630000     -32.88700000     -67.32080000
C      -48.70620000     -35.59750000     -71.01250000
H      -49.80190000     -35.88190000     -70.71950000
H      -48.28460000     -36.50430000     -71.47860000
C      -44.44180000     -35.78530000     -68.25300000
H      -43.90850000     -35.07990000     -67.62310000
H      -44.45150000     -36.70800000     -67.73970000
S      -48.79530000     -34.32250000     -72.33830000
S      -43.35590000     -36.22820000     -69.70530000
C      -47.04970000     -33.85240000     -72.61470000
H      -46.35700000     -34.71260000     -72.62970000
H      -47.12660000     -33.36300000     -73.68250000
C      -43.16120000     -34.56430000     -70.53630000
H      -42.09800000     -34.30280000     -70.42680000
H      -43.70330000     -33.76840000     -69.95410000
C      -43.66380000     -34.58120000     -72.01550000
H      -43.17310000     -35.25430000     -72.64160000
H      -44.74270000     -34.84090000     -71.97040000
C      -46.61490000     -32.69710000     -71.65540000
H      -46.06300000     -33.13400000     -70.79720000
H      -47.51200000     -32.17380000     -71.30260000
C      -45.65040000     -31.77060000     -72.33840000
C      -45.94550000     -30.43720000     -72.46900000
C      -44.25380000     -32.01130000     -72.64770000
H      -46.96520000     -29.96850000     -72.25030000
C      -43.69480000     -30.86900000     -73.13200000
C      -43.36990000     -33.12490000     -72.60820000
C      -42.12270000     -32.80320000     -73.03940000
S      -44.63520000     -29.43740000     -73.08080000
S      -41.99590000     -31.15490000     -73.60490000
H      -41.20560000     -33.39020000     -72.99030000
