40
Properties=species:S:1:pos:R:3 #=T CELL(abcABC):=T 1.889726e+02=T 90.00000=T Traj:=T positionsangstrom=T Step:=T 0=T Bead:=T pbc="F F F"
C      -44.23760000     -35.44070000     -71.81570000
C      -45.57330000     -35.68710000     -71.45880000
C      -45.99540000     -35.42570000     -70.16270000
C      -45.14860000     -34.94800000     -69.10730000
C      -43.76650000     -34.86020000     -69.47410000
C      -43.34630000     -35.09030000     -70.79420000
H      -43.92310000     -35.59980000     -72.80240000
H      -47.00570000     -35.47700000     -69.85440000
H      -42.99200000     -34.62720000     -68.79100000
H      -42.25050000     -35.10860000     -71.03430000
C      -45.67920000     -34.56370000     -67.78110000
H      -44.86180000     -34.73460000     -67.18040000
H      -46.61480000     -35.14580000     -67.50000000
C      -46.45990000     -36.36620000     -72.48680000
H      -45.84990000     -36.91650000     -73.19550000
H      -47.22840000     -36.96660000     -71.92600000
S      -46.32950000     -32.76840000     -67.47000000
S      -47.48810000     -35.10930000     -73.43910000
C      -46.80000000     -32.27820000     -69.17830000
H      -46.77860000     -33.06140000     -69.95070000
H      -47.83930000     -32.03170000     -69.18160000
C      -48.01610000     -33.66120000     -72.36450000
H      -47.73960000     -34.01750000     -71.40280000
H      -49.08040000     -33.60500000     -72.33650000
C      -47.54660000     -32.26370000     -72.82880000
H      -47.99150000     -32.17010000     -73.82030000
H      -47.82810000     -31.52200000     -72.07360000
C      -46.01520000     -31.10480000     -69.77430000
H      -45.54230000     -30.47350000     -68.97410000
H      -46.72080000     -30.43370000     -70.26320000
C      -44.87650000     -31.51750000     -70.69160000
C      -43.56090000     -31.51140000     -70.19040000
C      -44.99040000     -32.00550000     -72.03620000
H      -43.24370000     -31.20480000     -69.19440000
C      -43.74210000     -32.17500000     -72.58290000
C      -46.04740000     -32.19010000     -73.01290000
C      -45.58670000     -32.48210000     -74.27610000
S      -42.42950000     -31.93270000     -71.51620000
S      -43.83960000     -32.54990000     -74.30550000
H      -46.20000000     -32.69000000     -75.16350000
