40
Properties=species:S:1:pos:R:3 #=T CELL(abcABC):=T 1.889726e+02=T 90.00000=T Traj:=T positionsangstrom=T Step:=T 0=T Bead:=T pbc="F F F"
C      -44.49630000     -35.58100000     -71.90970000
C      -45.84230000     -35.90620000     -71.61050000
C      -46.29770000     -35.69210000     -70.29150000
C      -45.47490000     -35.17030000     -69.34250000
C      -44.07050000     -34.99710000     -69.53610000
C      -43.62660000     -35.27330000     -70.82300000
H      -44.17220000     -35.69320000     -72.96390000
H      -47.38310000     -35.85850000     -70.11430000
H      -43.47610000     -34.51960000     -68.69920000
H      -42.63030000     -35.03930000     -71.10090000
C      -45.97650000     -34.78480000     -67.89830000
H      -45.40860000     -35.38260000     -67.06850000
H      -46.99110000     -34.99320000     -67.70940000
C      -46.69870000     -36.33650000     -72.75860000
H      -46.07340000     -36.82350000     -73.51910000
H      -47.45630000     -37.06850000     -72.48100000
S      -45.69830000     -32.96910000     -67.57900000
S      -47.36660000     -34.88640000     -73.73700000
C      -46.75430000     -32.29130000     -68.92880000
H      -46.91710000     -33.14080000     -69.55640000
H      -47.69150000     -31.92390000     -68.54440000
C      -48.03150000     -33.61660000     -72.50660000
H      -47.63410000     -33.94190000     -71.56890000
H      -49.08950000     -33.59970000     -72.51380000
C      -47.49010000     -32.23890000     -72.88230000
H      -47.88650000     -31.83890000     -73.82020000
H      -47.85690000     -31.46580000     -72.15020000
C      -46.19130000     -31.11820000     -69.73530000
H      -46.05690000     -30.19140000     -69.15580000
H      -46.96910000     -31.02770000     -70.50380000
C      -44.97420000     -31.46790000     -70.54090000
C      -43.69380000     -31.23950000     -70.01870000
C      -44.98470000     -31.84020000     -71.96630000
H      -43.45050000     -30.72980000     -69.06710000
C      -43.68470000     -32.06600000     -72.36300000
C      -46.02040000     -32.23440000     -72.96860000
C      -45.38540000     -32.50140000     -74.17080000
S      -42.43450000     -31.62600000     -71.26170000
S      -43.62030000     -32.57890000     -74.03390000
H      -45.84780000     -32.74550000     -75.10280000
