40
Properties=species:S:1:pos:R:3 #=T CELL(abcABC):=T 1.889726e+02=T 90.00000=T Traj:=T positionsangstrom=T Step:=T 0=T Bead:=T pbc="F F F"
C      -44.75380000     -35.55940000     -72.71800000
C      -46.09680000     -35.79190000     -72.38950000
C      -46.46780000     -35.71200000     -71.05940000
C      -45.61750000     -35.45670000     -69.99550000
C      -44.28350000     -35.21860000     -70.40270000
C      -43.84730000     -35.35800000     -71.67440000
H      -44.53530000     -35.52600000     -73.83810000
H      -47.51080000     -35.97710000     -70.91830000
H      -43.60610000     -35.06420000     -69.62490000
H      -42.82230000     -35.10310000     -71.92270000
C      -46.05290000     -35.48840000     -68.54250000
H      -45.39760000     -36.12600000     -67.93670000
H      -47.04180000     -35.91800000     -68.46380000
C      -47.09230000     -36.04810000     -73.50200000
H      -46.66610000     -36.61660000     -74.35820000
H      -47.98910000     -36.63420000     -73.20180000
S      -45.99730000     -33.75230000     -67.79130000
S      -47.58940000     -34.31120000     -74.24820000
C      -47.09200000     -32.77340000     -68.91460000
H      -47.15920000     -33.40800000     -69.83530000
H      -48.09170000     -32.69360000     -68.53100000
C      -47.78800000     -33.34150000     -72.61760000
H      -47.44160000     -33.90240000     -71.78450000
H      -48.88500000     -33.20780000     -72.58550000
C      -47.07190000     -32.00730000     -72.73320000
H      -47.25610000     -31.47520000     -73.66110000
H      -47.46380000     -31.29090000     -72.00710000
C      -46.41980000     -31.47370000     -69.28330000
H      -46.23020000     -30.91760000     -68.36280000
H      -47.09570000     -30.82180000     -69.79160000
C      -45.08520000     -31.58390000     -69.99000000
C      -43.94810000     -31.24930000     -69.27820000
C      -44.76050000     -31.80720000     -71.43550000
H      -43.90580000     -30.96150000     -68.26550000
C      -43.42400000     -31.92000000     -71.64610000
C      -45.51210000     -32.17390000     -72.57110000
C      -44.74060000     -32.28100000     -73.71270000
S      -42.38200000     -31.49860000     -70.23410000
S      -42.98190000     -32.10550000     -73.37600000
H      -44.97910000     -32.24100000     -74.76530000
