40
Properties=species:S:1:pos:R:3 #=T CELL(abcABC):=T 1.889726e+02=T 90.00000=T Traj:=T positionsangstrom=T Step:=T 0=T Bead:=T pbc="F F F"
C      -47.70320000     -34.86590000     -71.44340000
C      -46.99730000     -34.56580000     -72.60160000
C      -46.76750000     -33.21250000     -72.87460000
C      -47.16600000     -32.19170000     -72.02050000
C      -47.75240000     -32.57910000     -70.84870000
C      -48.05870000     -33.86680000     -70.54220000
H      -47.83460000     -35.92170000     -71.11600000
H      -46.22060000     -33.02300000     -73.77880000
H      -48.11360000     -31.82520000     -70.13750000
H      -48.55620000     -34.08240000     -69.54190000
C      -47.00550000     -30.79640000     -72.36860000
H      -47.85280000     -30.26240000     -71.98430000
H      -47.14230000     -30.75640000     -73.42150000
C      -46.53840000     -35.60810000     -73.59650000
H      -46.28910000     -36.58400000     -73.12940000
H      -47.27000000     -35.86970000     -74.42670000
S      -45.46160000     -29.81920000     -71.87470000
S      -45.05460000     -34.93620000     -74.57340000
C      -44.06500000     -30.91050000     -72.48950000
H      -44.52770000     -31.78250000     -72.99840000
H      -43.36450000     -30.33050000     -73.09120000
C      -43.63740000     -35.46040000     -73.56980000
H      -42.73110000     -35.30510000     -74.08380000
H      -43.61330000     -36.48780000     -73.28170000
C      -43.31340000     -34.49710000     -72.41290000
H      -42.26310000     -34.75390000     -72.12390000
H      -43.46540000     -33.42380000     -72.79850000
C      -43.16020000     -31.35850000     -71.35320000
H      -42.71500000     -30.47980000     -70.84530000
H      -42.33830000     -31.99370000     -71.72350000
C      -43.87600000     -32.16310000     -70.30450000
C      -44.14060000     -31.63720000     -69.09180000
C      -44.17630000     -33.57750000     -70.26580000
H      -44.25430000     -30.59790000     -68.93030000
C      -44.73440000     -33.99980000     -69.07880000
C      -44.12930000     -34.64520000     -71.20560000
C      -44.58470000     -35.84840000     -70.67740000
S      -44.79500000     -32.73270000     -67.93910000
S      -45.13530000     -35.71530000     -69.06960000
H      -44.72130000     -36.78060000     -71.21130000
