40
Properties=species:S:1:pos:R:3 #=T CELL(abcABC):=T 1.889726e+02=T 90.00000=T Traj:=T positionsangstrom=T Step:=T 0=T Bead:=T pbc="F F F"
C      -44.66460000     -35.39760000     -72.65430000
C      -45.98880000     -35.78160000     -72.49000000
C      -46.37160000     -35.89580000     -71.15220000
C      -45.59400000     -35.58700000     -70.04830000
C      -44.25380000     -35.26870000     -70.30770000
C      -43.74950000     -35.27480000     -71.61720000
H      -44.28060000     -35.49440000     -73.70170000
H      -47.42480000     -36.18500000     -70.98180000
H      -43.64840000     -34.96630000     -69.43350000
H      -42.74270000     -35.13470000     -71.96750000
C      -46.22340000     -35.62890000     -68.67500000
H      -45.71500000     -36.22330000     -67.92020000
H      -47.29550000     -35.89960000     -68.85630000
C      -46.92360000     -35.94660000     -73.63290000
H      -46.42890000     -36.34600000     -74.52810000
H      -47.71260000     -36.63940000     -73.37830000
S      -46.16830000     -33.95550000     -67.81110000
S      -47.68500000     -34.23040000     -74.20590000
C      -47.06500000     -32.81470000     -68.99780000
H      -47.08000000     -33.39480000     -69.93070000
H      -48.07410000     -32.60480000     -68.63160000
C      -47.99470000     -33.16030000     -72.65660000
H      -47.76660000     -33.71130000     -71.68560000
H      -49.02200000     -32.83190000     -72.57410000
C      -47.07960000     -31.91210000     -72.83790000
H      -47.17980000     -31.63700000     -73.93470000
H      -47.50360000     -31.18240000     -72.19270000
C      -46.36880000     -31.43990000     -69.23880000
H      -46.14160000     -31.01440000     -68.24730000
H      -47.02480000     -30.83760000     -69.87850000
C      -45.00440000     -31.50880000     -69.88750000
C      -43.79560000     -31.49680000     -69.23140000
C      -44.66960000     -31.76240000     -71.36970000
H      -43.58520000     -31.33200000     -68.19770000
C      -43.33970000     -31.77930000     -71.63650000
C      -45.53740000     -31.99380000     -72.59900000
C      -44.77100000     -32.07470000     -73.66410000
S      -42.35620000     -31.50620000     -70.19480000
S      -42.99770000     -32.17610000     -73.32530000
H      -45.13620000     -32.27500000     -74.63930000
