40
Properties=species:S:1:pos:R:3 #=T CELL(abcABC):=T 1.889726e+02=T 90.00000=T Traj:=T positionsangstrom=T Step:=T 0=T Bead:=T pbc="F F F"
C      -47.50320000     -34.72130000     -71.63810000
C      -46.94830000     -34.30090000     -72.89840000
C      -46.86910000     -32.92540000     -73.08540000
C      -47.31330000     -32.05090000     -72.15620000
C      -47.84130000     -32.48460000     -70.95190000
C      -47.85840000     -33.82780000     -70.67730000
H      -47.55580000     -35.76110000     -71.47360000
H      -46.45360000     -32.54500000     -74.05410000
H      -48.09710000     -31.78450000     -70.21620000
H      -48.13360000     -34.16960000     -69.75770000
C      -47.10120000     -30.56070000     -72.43600000
H      -47.79820000     -29.90630000     -71.94110000
H      -47.12000000     -30.35310000     -73.47300000
C      -46.60900000     -35.37270000     -73.85920000
H      -46.75890000     -36.35950000     -73.39960000
H      -47.25610000     -35.28580000     -74.76060000
S      -45.45250000     -29.92960000     -71.70170000
S      -44.91360000     -35.39910000     -74.59040000
C      -44.22690000     -31.03860000     -72.46900000
H      -44.64520000     -31.89270000     -72.90450000
H      -43.74440000     -30.47630000     -73.26480000
C      -43.61780000     -35.76820000     -73.31940000
H      -42.78420000     -36.00200000     -73.98690000
H      -43.88480000     -36.71940000     -72.82590000
C      -43.36390000     -34.58870000     -72.39360000
H      -42.22920000     -34.40850000     -72.17060000
H      -43.64900000     -33.66510000     -72.89960000
C      -43.18790000     -31.48260000     -71.42390000
H      -42.71950000     -30.65360000     -70.98030000
H      -42.35890000     -32.03650000     -71.87120000
C      -43.69730000     -32.20620000     -70.18500000
C      -44.14030000     -31.51510000     -69.11350000
C      -43.99570000     -33.60530000     -70.16230000
H      -43.87740000     -30.53470000     -68.73530000
C      -44.63880000     -33.96510000     -68.98190000
C      -43.94350000     -34.72160000     -71.04990000
C      -44.54350000     -35.85840000     -70.54300000
S      -44.99760000     -32.57870000     -67.97650000
S      -45.22080000     -35.62140000     -68.92630000
H      -44.66460000     -36.77340000     -71.10690000
