40
Properties=species:S:1:pos:R:3 #=T CELL(abcABC):=T 1.889726e+02=T 90.00000=T Traj:=T positionsangstrom=T Step:=T 0=T Bead:=T pbc="F F F"
C      -47.76020000     -34.65400000     -71.68410000
C      -47.01630000     -34.32230000     -72.74460000
C      -46.83860000     -32.93570000     -73.04120000
C      -47.33080000     -32.02100000     -72.16790000
C      -47.93670000     -32.45420000     -70.89070000
C      -48.12750000     -33.78600000     -70.61830000
H      -47.93520000     -35.72880000     -71.47400000
H      -46.59280000     -32.50880000     -74.08170000
H      -48.15900000     -31.60940000     -70.27990000
H      -48.68740000     -34.15230000     -69.80140000
C      -47.11660000     -30.60870000     -72.41390000
H      -48.06080000     -30.01070000     -72.23470000
H      -46.79100000     -30.41860000     -73.44100000
C      -46.33800000     -35.41720000     -73.62880000
H      -45.98120000     -36.28620000     -73.08730000
H      -47.03810000     -35.78090000     -74.43670000
S      -45.69370000     -29.90820000     -71.37280000
S      -44.93240000     -34.82660000     -74.63870000
C      -44.22520000     -30.76550000     -72.18100000
H      -44.62380000     -31.53260000     -72.83890000
H      -43.69870000     -30.04810000     -72.88510000
C      -43.48950000     -35.36740000     -73.69670000
H      -42.68410000     -35.38540000     -74.50590000
H      -43.64610000     -36.44920000     -73.37080000
C      -43.13900000     -34.47820000     -72.53560000
H      -42.09150000     -34.54850000     -72.33170000
H      -43.38640000     -33.41020000     -72.73330000
C      -43.19720000     -31.31530000     -71.20960000
H      -42.75700000     -30.52770000     -70.58550000
H      -42.35090000     -31.76440000     -71.73550000
C      -43.81620000     -32.29910000     -70.21110000
C      -44.29650000     -31.80840000     -69.02260000
C      -44.13250000     -33.71180000     -70.34710000
H      -44.22640000     -30.73280000     -68.66750000
C      -44.66800000     -34.20220000     -69.13960000
C      -43.83930000     -34.80430000     -71.26460000
C      -44.15190000     -36.02480000     -70.73820000
S      -44.97800000     -32.96810000     -67.92760000
S      -45.00350000     -35.87860000     -69.18680000
H      -44.03860000     -36.96650000     -71.24300000
