40
Properties=species:S:1:pos:R:3 #=T CELL(abcABC):=T 1.889726e+02=T 90.00000=T Traj:=T positionsangstrom=T Step:=T 0=T Bead:=T pbc="F F F"
C      -47.46880000     -34.40500000     -71.84540000
C      -46.73310000     -33.91930000     -72.88650000
C      -46.53420000     -32.50500000     -72.97570000
C      -46.96340000     -31.66090000     -71.98620000
C      -47.74140000     -32.17260000     -70.90160000
C      -47.96490000     -33.53110000     -70.85030000
H      -47.62370000     -35.45050000     -71.72050000
H      -45.87160000     -31.96640000     -73.75590000
H      -48.09400000     -31.51650000     -70.10130000
H      -48.59910000     -34.03290000     -70.07350000
C      -46.74760000     -30.15850000     -72.02960000
H      -47.61990000     -29.61100000     -71.90210000
H      -46.25110000     -29.88510000     -73.00750000
C      -46.44500000     -34.90430000     -74.08190000
H      -46.39460000     -35.97080000     -73.74100000
H      -47.31360000     -34.83400000     -74.74970000
S      -45.41270000     -29.73690000     -70.83430000
S      -44.92530000     -34.42150000     -75.01580000
C      -44.06480000     -30.70400000     -71.58210000
H      -44.45790000     -31.26050000     -72.42200000
H      -43.32220000     -30.05120000     -72.07090000
C      -43.66010000     -35.17080000     -73.97600000
H      -42.74650000     -35.28640000     -74.62120000
H      -43.94680000     -36.21410000     -73.71670000
C      -43.23230000     -34.38500000     -72.71550000
H      -42.16640000     -34.71120000     -72.59720000
H      -43.21250000     -33.31550000     -72.85430000
C      -43.24230000     -31.58510000     -70.61090000
H      -42.90800000     -30.82510000     -69.87510000
H      -42.45160000     -32.04400000     -71.23240000
C      -44.05290000     -32.62150000     -69.86770000
C      -44.61710000     -32.33970000     -68.64180000
C      -44.29190000     -33.95510000     -70.28800000
H      -44.53890000     -31.39770000     -68.06970000
C      -45.14210000     -34.60860000     -69.33990000
C      -43.94100000     -34.81140000     -71.40610000
C      -44.24510000     -36.13800000     -71.14740000
S      -45.38120000     -33.67170000     -67.88110000
S      -45.05230000     -36.35410000     -69.59010000
H      -43.97320000     -36.99860000     -71.80740000
