40
Properties=species:S:1:pos:R:3 #=T CELL(abcABC):=T 1.889726e+02=T 90.00000=T Traj:=T positionsangstrom=T Step:=T 0=T Bead:=T pbc="F F F"
C      -47.62940000     -34.38090000     -71.88570000
C      -46.83250000     -33.88130000     -72.94980000
C      -46.54100000     -32.51210000     -72.91400000
C      -47.12580000     -31.63690000     -71.95240000
C      -47.84520000     -32.15940000     -70.87350000
C      -48.14120000     -33.57620000     -70.90320000
H      -47.93780000     -35.40840000     -71.75410000
H      -45.96680000     -32.04200000     -73.77740000
H      -48.07820000     -31.52040000     -70.03660000
H      -48.78800000     -34.00980000     -70.13280000
C      -46.65640000     -30.12730000     -71.96720000
H      -47.55890000     -29.60630000     -71.56360000
H      -46.44250000     -29.72810000     -72.94600000
C      -46.42810000     -34.85750000     -74.04740000
H      -46.26490000     -35.85450000     -73.73380000
H      -47.14460000     -34.83310000     -74.85970000
S      -45.26860000     -29.75560000     -70.83590000
S      -44.90880000     -34.39230000     -74.97000000
C      -43.82920000     -30.61540000     -71.59240000
H      -44.28000000     -30.94490000     -72.50960000
H      -43.05380000     -29.84470000     -71.82670000
C      -43.51680000     -35.11310000     -73.98390000
H      -42.63030000     -34.90200000     -74.56340000
H      -43.56430000     -36.20140000     -73.91450000
C      -43.28680000     -34.29650000     -72.66760000
H      -42.22440000     -34.24460000     -72.55110000
H      -43.63980000     -33.25530000     -72.95490000
C      -43.16800000     -31.62100000     -70.61980000
H      -42.61830000     -31.00680000     -69.90070000
H      -42.40190000     -32.08070000     -71.17350000
C      -43.97280000     -32.63930000     -69.82430000
C      -44.56760000     -32.32200000     -68.61690000
C      -44.13680000     -34.02200000     -70.20470000
H      -44.80710000     -31.32850000     -68.26130000
C      -44.87450000     -34.72550000     -69.20130000
C      -44.00890000     -34.80760000     -71.43100000
C      -44.37490000     -36.14390000     -71.20130000
S      -45.50210000     -33.74010000     -67.96020000
S      -45.13950000     -36.39810000     -69.66170000
H      -44.38930000     -36.96590000     -71.99910000
