40
Properties=species:S:1:pos:R:3 #=T CELL(abcABC):=T 1.889726e+02=T 90.00000=T Traj:=T positionsangstrom=T Step:=T 0=T Bead:=T pbc="F F F"
C      -47.54520000     -34.69080000     -71.63020000
C      -46.88690000     -34.18930000     -72.82450000
C      -46.80040000     -32.81570000     -73.00350000
C      -47.23960000     -31.93640000     -71.94760000
C      -47.90050000     -32.44750000     -70.85130000
C      -48.07140000     -33.87310000     -70.64700000
H      -47.55880000     -35.78720000     -71.55740000
H      -46.24730000     -32.43640000     -73.81960000
H      -48.50410000     -31.75400000     -70.19900000
H      -48.62900000     -34.23300000     -69.70020000
C      -47.11140000     -30.47250000     -72.18080000
H      -47.78020000     -29.86480000     -71.64900000
H      -47.27100000     -30.11710000     -73.20110000
C      -46.39230000     -35.16880000     -73.87610000
H      -46.36480000     -36.13130000     -73.27290000
H      -47.23120000     -35.30810000     -74.54010000
S      -45.52340000     -29.76890000     -71.54580000
S      -44.81810000     -34.80880000     -74.81050000
C      -44.06350000     -30.79370000     -72.11250000
H      -44.56780000     -31.58140000     -72.69490000
H      -43.43100000     -30.10770000     -72.71680000
C      -43.41200000     -35.26600000     -73.64810000
H      -42.54830000     -35.28190000     -74.31650000
H      -43.50590000     -36.30920000     -73.42210000
C      -43.18890000     -34.38450000     -72.49830000
H      -42.12670000     -34.33230000     -72.39540000
H      -43.55610000     -33.42190000     -72.77380000
C      -43.19470000     -31.37650000     -70.95650000
H      -42.73590000     -30.60380000     -70.38030000
H      -42.45240000     -31.99580000     -71.41040000
C      -43.95080000     -32.35580000     -70.06030000
C      -44.49160000     -31.90770000     -68.87430000
C      -44.11060000     -33.82100000     -70.18550000
H      -44.23390000     -30.92620000     -68.47400000
C      -44.81710000     -34.33020000     -69.08640000
C      -43.81310000     -34.77090000     -71.22390000
C      -44.36920000     -35.97290000     -70.97010000
S      -45.17740000     -33.13880000     -67.83480000
S      -45.10440000     -36.04130000     -69.34600000
H      -44.23050000     -36.86210000     -71.55440000
