40
Properties=species:S:1:pos:R:3 #=T CELL(abcABC):=T 1.889726e+02=T 90.00000=T Traj:=T positionsangstrom=T Step:=T 0=T Bead:=T pbc="F F F"
C      -47.76500000     -34.43590000     -71.93670000
C      -46.83960000     -33.98450000     -72.84550000
C      -46.53380000     -32.62360000     -72.83230000
C      -47.09930000     -31.69400000     -71.97490000
C      -47.99170000     -32.17120000     -71.01400000
C      -48.30580000     -33.55170000     -71.03660000
H      -47.99330000     -35.52380000     -71.94000000
H      -45.94740000     -32.17210000     -73.69540000
H      -48.43200000     -31.55080000     -70.22420000
H      -49.01430000     -33.88920000     -70.30900000
C      -46.65220000     -30.24290000     -72.04230000
H      -47.34520000     -29.70090000     -71.58750000
H      -46.49030000     -29.91640000     -73.11510000
C      -46.19470000     -34.87380000     -73.82490000
H      -45.90690000     -35.80560000     -73.40630000
H      -46.98900000     -35.13230000     -74.58930000
S      -45.21210000     -29.87160000     -70.96390000
S      -44.67780000     -34.24910000     -74.68370000
C      -43.87570000     -30.96720000     -71.70710000
H      -44.30420000     -31.73690000     -72.35550000
H      -43.24170000     -30.28760000     -72.21090000
C      -43.14610000     -35.00120000     -73.85230000
H      -42.19900000     -34.72040000     -74.28950000
H      -43.25860000     -36.05200000     -73.89160000
C      -42.94390000     -34.45460000     -72.39650000
H      -41.94450000     -34.80850000     -72.06710000
H      -42.94430000     -33.36810000     -72.34360000
C      -43.02810000     -31.65480000     -70.59020000
H      -42.71670000     -30.84690000     -69.90110000
H      -42.13470000     -32.18010000     -70.94310000
C      -43.89750000     -32.66480000     -69.80520000
C      -44.51680000     -32.30010000     -68.64740000
C      -44.23260000     -34.01460000     -70.22610000
H      -44.34000000     -31.37350000     -68.08760000
C      -45.08770000     -34.63660000     -69.34630000
C      -43.86990000     -34.87150000     -71.31530000
C      -44.52390000     -36.13050000     -71.23160000
S      -45.50170000     -33.64310000     -67.99520000
S      -45.65770000     -36.13820000     -69.91550000
H      -44.40600000     -36.97040000     -71.86910000
