40
Properties=species:S:1:pos:R:3 #=T CELL(abcABC):=T 1.889726e+02=T 90.00000=T Traj:=T positionsangstrom=T Step:=T 0=T Bead:=T pbc="F F F"
C      -47.69470000     -34.38700000     -71.79650000
C      -46.75970000     -33.95060000     -72.74880000
C      -46.53500000     -32.51790000     -72.89770000
C      -47.17230000     -31.59930000     -72.02700000
C      -48.11300000     -32.17190000     -71.08590000
C      -48.35290000     -33.50050000     -70.95450000
H      -47.85920000     -35.45060000     -71.64350000
H      -45.75550000     -32.22790000     -73.57580000
H      -48.55470000     -31.42390000     -70.38530000
H      -49.09970000     -33.77230000     -70.22550000
C      -46.74070000     -30.15750000     -72.04260000
H      -47.41570000     -29.37040000     -71.68410000
H      -46.45280000     -29.95430000     -73.08750000
C      -46.20970000     -34.96940000     -73.76930000
H      -45.82530000     -35.88020000     -73.29800000
H      -46.90970000     -35.20570000     -74.55410000
S      -45.20640000     -29.83230000     -70.99460000
S      -44.74030000     -34.32710000     -74.69190000
C      -43.74280000     -30.96760000     -71.59620000
H      -44.16710000     -31.69390000     -72.31780000
H      -43.10720000     -30.28370000     -72.22280000
C      -43.35160000     -35.08240000     -73.83660000
H      -42.54170000     -34.93540000     -74.62240000
H      -43.46750000     -36.18620000     -73.75010000
C      -42.96780000     -34.45900000     -72.47470000
H      -41.96760000     -34.84970000     -72.19660000
H      -42.84030000     -33.42960000     -72.68710000
C      -42.97650000     -31.67460000     -70.45460000
H      -42.66250000     -30.93190000     -69.74030000
H      -42.16410000     -32.20270000     -70.92350000
C      -43.86490000     -32.62460000     -69.70870000
C      -44.49260000     -32.37890000     -68.54830000
C      -44.22840000     -33.96680000     -70.25840000
H      -44.35940000     -31.52070000     -67.96180000
C      -45.11410000     -34.64120000     -69.43590000
C      -43.93000000     -34.71880000     -71.40900000
C      -44.46370000     -36.00350000     -71.36940000
S      -45.54350000     -33.70070000     -68.00300000
S      -45.48630000     -36.22680000     -69.94490000
H      -44.32120000     -36.81560000     -72.04820000
