40
Properties=species:S:1:pos:R:3 #=T CELL(abcABC):=T 1.889726e+02=T 90.00000=T Traj:=T positionsangstrom=T Step:=T 0=T Bead:=T pbc="F F F"
C      -47.44610000     -34.50370000     -71.78610000
C      -46.93210000     -33.96710000     -73.01510000
C      -46.88340000     -32.55170000     -73.08810000
C      -47.06150000     -31.72570000     -71.99380000
C      -47.53390000     -32.25100000     -70.78550000
C      -47.79490000     -33.65120000     -70.70700000
H      -47.75380000     -35.59370000     -71.67300000
H      -46.82020000     -32.14050000     -74.11960000
H      -47.96960000     -31.58800000     -70.02220000
H      -48.31150000     -33.99040000     -69.79840000
C      -46.86850000     -30.24110000     -72.15170000
H      -47.73230000     -29.59970000     -71.81360000
H      -46.57740000     -29.85960000     -73.17810000
C      -46.54460000     -34.93500000     -74.08150000
H      -46.45410000     -35.93440000     -73.63370000
H      -47.32540000     -35.06640000     -74.80670000
S      -45.44090000     -29.72250000     -71.02410000
S      -44.96150000     -34.51640000     -74.88150000
C      -43.98840000     -30.61320000     -71.74560000
H      -44.37450000     -31.33730000     -72.50290000
H      -43.36030000     -29.86790000     -72.15430000
C      -43.55510000     -35.15490000     -73.82210000
H      -42.75480000     -35.32750000     -74.51240000
H      -43.91130000     -36.14590000     -73.50260000
C      -43.17980000     -34.35880000     -72.60020000
H      -42.09660000     -34.57690000     -72.40950000
H      -43.29320000     -33.28810000     -72.69920000
C      -43.29160000     -31.46560000     -70.67420000
H      -43.07450000     -30.79940000     -69.86260000
H      -42.29790000     -31.84390000     -71.06680000
C      -44.01920000     -32.55160000     -69.92690000
C      -44.55760000     -32.21050000     -68.70810000
C      -44.14990000     -33.93880000     -70.23310000
H      -44.52330000     -31.18440000     -68.34420000
C      -44.90670000     -34.59180000     -69.24750000
C      -43.85020000     -34.83530000     -71.30230000
C      -44.33300000     -36.13000000     -71.13820000
S      -45.23400000     -33.60820000     -67.84140000
S      -45.16420000     -36.30720000     -69.63530000
H      -44.21670000     -36.97430000     -71.77600000
