40
Properties=species:S:1:pos:R:3 #=T CELL(abcABC):=T 1.889726e+02=T 90.00000=T Traj:=T positionsangstrom=T Step:=T 0=T Bead:=T pbc="F F F"
C      -46.00500000     -34.16470000     -67.66490000
C      -45.66440000     -35.31650000     -68.41910000
C      -46.58710000     -35.76590000     -69.37630000
C      -47.78980000     -35.15750000     -69.69600000
C      -48.13470000     -33.99320000     -68.92850000
C      -47.27940000     -33.61230000     -67.86450000
H      -45.25590000     -33.75860000     -66.92460000
H      -46.19500000     -36.61370000     -69.95740000
H      -49.08390000     -33.52270000     -69.39050000
H      -47.68290000     -32.78840000     -67.24310000
C      -48.54860000     -35.73460000     -70.82380000
H      -49.55130000     -36.03960000     -70.45950000
H      -48.06460000     -36.53910000     -71.18540000
C      -44.33970000     -35.99470000     -68.28510000
H      -43.71580000     -35.49330000     -67.47690000
H      -44.58060000     -37.07800000     -67.99880000
S      -48.96930000     -34.49290000     -72.22410000
S      -43.43960000     -36.14430000     -69.90500000
C      -47.47500000     -33.61740000     -72.82600000
H      -46.86170000     -34.30640000     -73.43540000
H      -47.88650000     -32.69770000     -73.37420000
C      -43.42840000     -34.37250000     -70.49020000
H      -42.69150000     -33.76460000     -69.93360000
H      -44.35370000     -33.78030000     -70.26890000
C      -43.21170000     -34.37310000     -71.97550000
H      -42.34030000     -34.98490000     -72.28610000
H      -44.09210000     -34.81390000     -72.56460000
C      -46.47240000     -33.08700000     -71.71110000
H      -45.82880000     -33.90670000     -71.41480000
H      -46.97980000     -32.80950000     -70.82290000
C      -45.52540000     -31.92590000     -72.17160000
C      -46.10230000     -30.70670000     -72.45320000
C      -44.17460000     -32.01820000     -72.60020000
H      -47.09610000     -30.53200000     -72.31980000
C      -43.73910000     -30.80570000     -73.20370000
C      -43.06590000     -32.97830000     -72.53810000
C      -41.95070000     -32.51650000     -73.20110000
S      -45.00660000     -29.57750000     -73.18890000
S      -42.08400000     -30.84660000     -73.71280000
H      -41.02230000     -33.06670000     -73.38440000
