40
Properties=species:S:1:pos:R:3 #=T CELL(abcABC):=T 1.889726e+02=T 90.00000=T Traj:=T positionsangstrom=T Step:=T 0=T Bead:=T pbc="F F F"
C      -47.48780000     -35.25920000     -69.06200000
C      -47.63870000     -33.95250000     -68.61020000
C      -48.34460000     -33.05600000     -69.49490000
C      -48.88550000     -33.38970000     -70.74630000
C      -48.79600000     -34.72840000     -71.09380000
C      -48.09620000     -35.63650000     -70.29530000
H      -46.97820000     -36.02910000     -68.47060000
H      -48.39890000     -32.01330000     -69.33380000
H      -49.08660000     -34.94800000     -72.13380000
H      -48.05010000     -36.68220000     -70.50700000
C      -49.44380000     -32.41070000     -71.81250000
H      -50.27240000     -31.78500000     -71.44130000
H      -49.90000000     -33.04200000     -72.58420000
C      -46.96960000     -33.43400000     -67.38560000
H      -47.51250000     -32.62960000     -66.97750000
H      -46.86680000     -34.24240000     -66.55970000
S      -48.21110000     -31.27440000     -72.64490000
S      -45.32070000     -32.59130000     -67.66030000
C      -46.85090000     -32.46960000     -73.03470000
H      -46.88290000     -33.25810000     -72.31960000
H      -46.97820000     -32.77300000     -74.07540000
C      -44.46180000     -33.61860000     -68.99090000
H      -45.19580000     -34.02530000     -69.66250000
H      -43.96700000     -34.49040000     -68.61680000
C      -43.55930000     -32.60310000     -69.83520000
H      -44.18580000     -31.75640000     -70.14870000
H      -42.83250000     -32.12760000     -69.21130000
C      -45.50190000     -31.89390000     -72.78760000
H      -45.35800000     -31.68140000     -71.76940000
H      -45.48510000     -30.89520000     -73.30270000
C      -44.36170000     -32.85200000     -73.25300000
C      -44.17060000     -33.35070000     -74.55880000
C      -43.25580000     -33.26310000     -72.42690000
H      -44.91380000     -33.30580000     -75.36530000
C      -42.27710000     -33.99520000     -73.19600000
C      -42.87090000     -33.26880000     -71.02470000
C      -41.69740000     -33.94170000     -70.80980000
S      -42.69060000     -34.19930000     -74.82150000
S      -40.99670000     -34.65050000     -72.27640000
H      -41.29830000     -34.13420000     -69.82700000
