40
Properties=species:S:1:pos:R:3 #=T CELL(abcABC):=T 1.889726e+02=T 90.00000=T Traj:=T positionsangstrom=T Step:=T 0=T Bead:=T pbc="F F F"
C      -47.17740000     -34.29480000     -73.35600000
C      -46.13190000     -33.73340000     -74.06700000
C      -45.78050000     -32.39800000     -73.89690000
C      -46.43290000     -31.68580000     -72.90430000
C      -47.41630000     -32.26920000     -72.14480000
C      -47.71460000     -33.61880000     -72.25270000
H      -47.60010000     -35.30190000     -73.61780000
H      -44.92380000     -31.96520000     -74.43800000
H      -47.88890000     -31.56740000     -71.55410000
H      -48.50130000     -34.09520000     -71.76810000
C      -45.99800000     -30.23630000     -72.73120000
H      -46.98130000     -29.68770000     -72.59010000
H      -45.54350000     -29.85900000     -73.61930000
C      -45.59770000     -34.62340000     -75.20980000
H      -46.24700000     -35.51000000     -75.18570000
H      -45.59830000     -34.16590000     -76.19300000
S      -44.91320000     -30.06720000     -71.27290000
S      -43.90280000     -35.29630000     -74.73070000
C      -43.42100000     -31.13640000     -71.46440000
H      -43.75110000     -31.90800000     -72.17580000
H      -42.57290000     -30.54260000     -71.73510000
C      -44.17760000     -35.88530000     -73.00810000
H      -43.62220000     -36.81450000     -72.99740000
H      -45.26830000     -36.08040000     -72.95590000
C      -43.79290000     -34.91040000     -71.79320000
H      -42.77350000     -35.11040000     -71.43770000
H      -43.77740000     -33.91090000     -72.26260000
C      -43.03930000     -31.86770000     -70.19090000
H      -42.58550000     -31.02100000     -69.58080000
H      -42.34070000     -32.59940000     -70.37650000
C      -44.11430000     -32.53770000     -69.36170000
C      -44.66420000     -31.91220000     -68.27160000
C      -44.87130000     -33.79570000     -69.68890000
H      -44.30790000     -30.96400000     -67.85730000
C      -45.85780000     -34.09570000     -68.69340000
C      -44.77120000     -34.89890000     -70.61570000
C      -45.55940000     -35.97420000     -70.36290000
S      -45.75030000     -32.94730000     -67.34910000
S      -46.46610000     -35.68090000     -68.79460000
H      -45.69750000     -36.84050000     -70.98820000
