40
Properties=species:S:1:pos:R:3 #=T CELL(abcABC):=T 1.889726e+02=T 90.00000=T Traj:=T positionsangstrom=T Step:=T 0=T Bead:=T pbc="F F F"
C      -47.36670000     -35.93030000     -69.05210000
C      -47.47280000     -34.55910000     -68.73700000
C      -48.10070000     -33.64200000     -69.62350000
C      -48.66080000     -34.16810000     -70.79460000
C      -48.66010000     -35.55520000     -71.02330000
C      -47.97380000     -36.38820000     -70.15720000
H      -46.71060000     -36.56870000     -68.46470000
H      -48.14790000     -32.55530000     -69.33960000
H      -49.08070000     -35.88210000     -71.93510000
H      -48.02260000     -37.43450000     -70.40380000
C      -49.41090000     -33.27260000     -71.77210000
H      -50.33150000     -32.90770000     -71.33250000
H      -49.64400000     -33.82310000     -72.70850000
C      -46.81980000     -34.06480000     -67.45880000
H      -47.57080000     -33.71940000     -66.76630000
H      -46.14260000     -34.86320000     -67.04370000
S      -48.43870000     -31.71000000     -72.14600000
S      -45.63600000     -32.73390000     -67.93900000
C      -46.75350000     -32.45930000     -72.37530000
H      -46.51080000     -32.88550000     -71.44350000
H      -46.93360000     -33.28900000     -73.05110000
C      -44.48550000     -33.39940000     -69.27660000
H      -45.22540000     -33.89030000     -69.95620000
H      -43.78010000     -34.15440000     -68.88800000
C      -43.65490000     -32.24870000     -69.90540000
H      -44.32110000     -31.36490000     -70.02430000
H      -42.97700000     -31.98610000     -69.07680000
C      -45.61220000     -31.62430000     -72.88510000
H      -45.31600000     -30.89770000     -72.14510000
H      -45.91720000     -31.07180000     -73.81210000
C      -44.40260000     -32.43630000     -73.31570000
C      -44.20680000     -32.75320000     -74.65050000
C      -43.25330000     -32.79860000     -72.49190000
H      -44.85810000     -32.48180000     -75.56400000
C      -42.27430000     -33.44360000     -73.25460000
C      -42.84770000     -32.76390000     -71.05280000
C      -41.69570000     -33.48230000     -70.77700000
S      -42.65340000     -33.44200000     -74.97990000
S      -40.91490000     -34.01100000     -72.28450000
H      -41.30670000     -33.84650000     -69.85070000
