40
Properties=species:S:1:pos:R:3 #=T CELL(abcABC):=T 1.889726e+02=T 90.00000=T Traj:=T positionsangstrom=T Step:=T 0=T Bead:=T pbc="F F F"
C      -47.39220000     -35.60350000     -69.21570000
C      -47.52810000     -34.26700000     -68.75470000
C      -48.29630000     -33.37840000     -69.52510000
C      -48.83380000     -33.68060000     -70.75670000
C      -48.89700000     -35.07470000     -71.10080000
C      -48.17370000     -35.99800000     -70.29060000
H      -46.81870000     -36.40390000     -68.69870000
H      -48.36960000     -32.33270000     -69.19930000
H      -49.37210000     -35.35550000     -71.97130000
H      -48.26960000     -37.05240000     -70.51010000
C      -49.46020000     -32.57580000     -71.60840000
H      -50.12850000     -31.99200000     -70.97670000
H      -50.11880000     -32.79880000     -72.40570000
C      -46.67460000     -33.82350000     -67.60960000
H      -47.21190000     -33.63390000     -66.64590000
H      -45.96200000     -34.67650000     -67.30670000
S      -48.21260000     -31.34560000     -72.37770000
S      -45.58440000     -32.37730000     -68.13220000
C      -46.79690000     -32.51430000     -72.82830000
H      -47.04240000     -33.42580000     -72.29170000
H      -46.89490000     -32.68460000     -73.94190000
C      -44.73080000     -33.22380000     -69.45980000
H      -45.34580000     -33.40620000     -70.30040000
H      -44.50370000     -34.19400000     -69.06240000
C      -43.36820000     -32.49730000     -69.71300000
H      -43.54040000     -31.44750000     -69.86800000
H      -42.75640000     -32.61270000     -68.85150000
C      -45.44200000     -31.79900000     -72.51850000
H      -45.39480000     -31.72610000     -71.46760000
H      -45.40020000     -30.80850000     -72.97520000
C      -44.30560000     -32.61520000     -73.09720000
C      -44.18770000     -32.93250000     -74.44630000
C      -43.17970000     -33.21980000     -72.30550000
H      -44.72960000     -32.40060000     -75.17800000
C      -42.32590000     -33.92510000     -73.13340000
C      -42.74430000     -33.17930000     -70.94400000
C      -41.61360000     -33.88770000     -70.75080000
S      -42.74840000     -33.90870000     -74.80460000
S      -40.97940000     -34.64730000     -72.25040000
H      -41.14900000     -33.98620000     -69.79480000
