40
Properties=species:S:1:pos:R:3 #=T CELL(abcABC):=T 1.889726e+02=T 90.00000=T Traj:=T positionsangstrom=T Step:=T 0=T Bead:=T pbc="F F F"
C      -47.52310000     -35.83250000     -69.02390000
C      -47.61850000     -34.48410000     -68.68610000
C      -48.30890000     -33.65310000     -69.57800000
C      -48.70190000     -34.10520000     -70.88290000
C      -48.53570000     -35.48430000     -71.20020000
C      -47.94210000     -36.34500000     -70.24420000
H      -47.08250000     -36.60260000     -68.32860000
H      -48.35180000     -32.54960000     -69.37030000
H      -48.90820000     -36.06930000     -72.08450000
H      -47.94080000     -37.40690000     -70.51060000
C      -49.37300000     -33.11810000     -71.73450000
H      -50.27850000     -32.68340000     -71.27630000
H      -49.68950000     -33.55540000     -72.69190000
C      -46.89280000     -33.82150000     -67.53150000
H      -47.60920000     -33.39060000     -66.86270000
H      -46.46940000     -34.56020000     -66.87190000
S      -48.30590000     -31.65370000     -72.18550000
S      -45.67640000     -32.49570000     -67.97130000
C      -46.67230000     -32.55060000     -72.37350000
H      -46.29770000     -32.98580000     -71.39590000
H      -46.86900000     -33.39930000     -73.06680000
C      -44.49900000     -33.41130000     -69.09250000
H      -45.17890000     -33.94930000     -69.71360000
H      -43.87400000     -34.20860000     -68.63320000
C      -43.71580000     -32.41260000     -69.89200000
H      -44.31960000     -31.66840000     -70.38930000
H      -43.14140000     -31.76420000     -69.20090000
C      -45.55360000     -31.63600000     -72.80440000
H      -45.32470000     -30.91980000     -71.96220000
H      -45.95550000     -31.05820000     -73.61800000
C      -44.35020000     -32.42790000     -73.20740000
C      -44.17020000     -32.69630000     -74.51570000
C      -43.18140000     -32.85030000     -72.45870000
H      -44.85790000     -32.43150000     -75.32480000
C      -42.24290000     -33.52510000     -73.23350000
C      -42.76940000     -32.93390000     -71.03750000
C      -41.55870000     -33.52920000     -70.85750000
S      -42.80080000     -33.72770000     -74.90480000
S      -40.86470000     -34.10420000     -72.39910000
H      -41.01360000     -33.79490000     -69.93320000
