40
Properties=species:S:1:pos:R:3 #=T CELL(abcABC):=T 1.889726e+02=T 90.00000=T Traj:=T positionsangstrom=T Step:=T 0=T Bead:=T pbc="F F F"
C      -47.31210000     -36.40710000     -69.13600000
C      -47.31850000     -35.05970000     -68.76670000
C      -48.02620000     -34.12620000     -69.58830000
C      -48.65080000     -34.48070000     -70.78680000
C      -48.61590000     -35.82820000     -71.16170000
C      -48.05330000     -36.75920000     -70.27170000
H      -46.71070000     -37.05720000     -68.49960000
H      -47.88690000     -33.07290000     -69.38900000
H      -49.12790000     -36.16360000     -72.05620000
H      -48.07130000     -37.76880000     -70.61950000
C      -49.24390000     -33.40490000     -71.62850000
H      -50.11520000     -33.05400000     -71.10250000
H      -49.62960000     -33.73740000     -72.57510000
C      -46.73540000     -34.57090000     -67.48250000
H      -47.51090000     -34.26650000     -66.73820000
H      -46.09660000     -35.39050000     -67.03460000
S      -48.24480000     -31.97140000     -71.99250000
S      -45.62250000     -33.02370000     -67.72290000
C      -46.73610000     -32.83060000     -72.58310000
H      -46.19870000     -33.29130000     -71.72340000
H      -47.01840000     -33.58960000     -73.39440000
C      -44.68020000     -33.68330000     -69.16390000
H      -45.20920000     -34.48600000     -69.52430000
H      -43.80740000     -34.17100000     -68.74520000
C      -44.28050000     -32.45300000     -69.98950000
H      -45.25010000     -32.13600000     -70.40640000
H      -43.85500000     -31.71140000     -69.27230000
C      -45.84130000     -31.77490000     -73.16090000
H      -45.80140000     -31.07300000     -72.30100000
H      -46.44500000     -31.26680000     -73.91560000
C      -44.44060000     -32.20840000     -73.52680000
C      -43.98550000     -32.20110000     -74.80550000
C      -43.38820000     -32.59320000     -72.59260000
H      -44.65480000     -31.82590000     -75.60690000
C      -42.21040000     -32.90530000     -73.22880000
C      -43.25940000     -32.64050000     -71.12700000
C      -41.93630000     -32.82590000     -70.77920000
S      -42.37820000     -32.85810000     -74.96450000
S      -40.93000000     -33.26970000     -72.19990000
H      -41.62520000     -33.17550000     -69.83060000
