40
Properties=species:S:1:pos:R:3 #=T CELL(abcABC):=T 1.889726e+02=T 90.00000=T Traj:=T positionsangstrom=T Step:=T 0=T Bead:=T pbc="F F F"
C      -47.32790000     -36.22110000     -69.13940000
C      -47.36380000     -34.89880000     -68.71360000
C      -48.14450000     -33.96300000     -69.41270000
C      -48.71920000     -34.34230000     -70.63750000
C      -48.71060000     -35.66600000     -71.04890000
C      -48.03820000     -36.60710000     -70.30280000
H      -46.75450000     -37.03010000     -68.61380000
H      -48.07980000     -32.89080000     -69.17110000
H      -49.33190000     -35.85950000     -71.92870000
H      -48.03390000     -37.65570000     -70.54590000
C      -49.40110000     -33.34750000     -71.58590000
H      -50.40430000     -33.00330000     -71.19090000
H      -49.60310000     -33.87820000     -72.57330000
C      -46.63240000     -34.43430000     -67.46330000
H      -47.35610000     -34.02170000     -66.73840000
H      -46.09250000     -35.24850000     -66.95780000
S      -48.23490000     -31.89640000     -71.95660000
S      -45.58890000     -32.95190000     -67.85440000
C      -46.86700000     -32.67280000     -72.91550000
H      -46.63840000     -33.54440000     -72.31280000
H      -47.10210000     -32.92840000     -73.90670000
C      -44.51180000     -33.57660000     -69.23530000
H      -45.03400000     -34.20530000     -69.99280000
H      -43.71950000     -34.28840000     -68.83230000
C      -44.00430000     -32.28560000     -69.96940000
H      -44.88440000     -31.74570000     -70.33790000
H      -43.51940000     -31.72650000     -69.16200000
C      -45.74340000     -31.53540000     -73.01970000
H      -45.62280000     -30.97020000     -72.07710000
H      -46.11700000     -30.89780000     -73.82270000
C      -44.40140000     -32.14010000     -73.44630000
C      -44.03270000     -32.35880000     -74.78340000
C      -43.34670000     -32.55100000     -72.52910000
H      -44.66830000     -32.19510000     -75.64340000
C      -42.28060000     -33.09180000     -73.23980000
C      -43.05240000     -32.57370000     -71.11090000
C      -41.80240000     -33.10060000     -70.85350000
S      -42.48210000     -33.12400000     -74.92010000
S      -41.01530000     -33.73080000     -72.25900000
H      -41.39580000     -33.21630000     -69.85150000
