40
Properties=species:S:1:pos:R:3 #=T CELL(abcABC):=T 1.889726e+02=T 90.00000=T Traj:=T positionsangstrom=T Step:=T 0=T Bead:=T pbc="F F F"
C      -45.74220000     -34.28550000     -67.70920000
C      -45.39980000     -35.29420000     -68.53820000
C      -46.27200000     -35.80250000     -69.46090000
C      -47.53200000     -35.20720000     -69.67050000
C      -47.89030000     -34.10850000     -68.87250000
C      -47.02710000     -33.59460000     -67.87880000
H      -45.16300000     -33.78810000     -66.99230000
H      -45.91460000     -36.56760000     -70.12250000
H      -48.84210000     -33.75610000     -69.06260000
H      -47.34120000     -32.70940000     -67.29660000
C      -48.43810000     -35.64960000     -70.80300000
H      -49.19980000     -36.30620000     -70.61390000
H      -47.80750000     -36.22360000     -71.50040000
C      -44.09410000     -35.97160000     -68.31860000
H      -43.39560000     -35.46440000     -67.60350000
H      -44.21270000     -36.95050000     -67.85230000
S      -49.28180000     -34.29800000     -71.72670000
S      -43.04030000     -36.12000000     -69.89140000
C      -47.87720000     -33.59540000     -72.72080000
H      -47.71040000     -34.46160000     -73.50000000
H      -48.36420000     -32.86910000     -73.33710000
C      -43.03910000     -34.32040000     -70.53820000
H      -42.03830000     -33.88620000     -70.33880000
H      -43.76540000     -33.67030000     -69.99920000
C      -43.36840000     -34.34520000     -72.08220000
H      -42.64490000     -35.04210000     -72.55010000
H      -44.34310000     -34.78970000     -72.20380000
C      -46.67870000     -33.15010000     -71.88290000
H      -46.13910000     -34.01730000     -71.55340000
H      -47.14690000     -32.81740000     -70.92870000
C      -45.80880000     -32.07100000     -72.54000000
C      -46.41790000     -30.89630000     -72.86370000
C      -44.32280000     -32.03890000     -72.68570000
H      -47.39200000     -30.66100000     -72.53140000
C      -43.85060000     -30.83180000     -73.09690000
C      -43.21590000     -32.98820000     -72.72910000
C      -42.02920000     -32.50840000     -73.21590000
S      -45.20840000     -29.68630000     -73.33530000
S      -42.17670000     -30.74640000     -73.53850000
H      -41.09820000     -33.03500000     -73.18300000
