40
Properties=species:S:1:pos:R:3 #=T CELL(abcABC):=T 1.889726e+02=T 90.00000=T Traj:=T positionsangstrom=T Step:=T 0=T Bead:=T pbc="F F F"
C      -46.80450000     -36.43210000     -69.41860000
C      -47.20020000     -35.18310000     -68.95140000
C      -48.11310000     -34.45120000     -69.72780000
C      -48.52940000     -34.84670000     -70.98450000
C      -48.05470000     -36.06020000     -71.44780000
C      -47.18610000     -36.82590000     -70.69110000
H      -46.18070000     -36.93710000     -68.74920000
H      -48.30900000     -33.44370000     -69.42170000
H      -48.34680000     -36.51620000     -72.40020000
H      -46.88380000     -37.78530000     -71.10830000
C      -49.51450000     -33.95880000     -71.69820000
H      -50.37860000     -33.62720000     -71.18080000
H      -49.88990000     -34.47240000     -72.55230000
C      -46.56350000     -34.67930000     -67.75060000
H      -47.32890000     -34.60900000     -66.92200000
H      -45.84130000     -35.41600000     -67.41550000
S      -48.71060000     -32.37100000     -72.07710000
S      -45.83830000     -32.97860000     -67.99690000
C      -47.06540000     -32.84970000     -72.72280000
H      -46.70770000     -33.85830000     -72.45170000
H      -47.07340000     -32.89740000     -73.82620000
C      -44.44420000     -33.54870000     -69.22740000
H      -44.94650000     -33.94880000     -70.10950000
H      -43.95380000     -34.36490000     -68.71480000
C      -43.70350000     -32.30840000     -69.61880000
H      -44.49010000     -31.49120000     -69.79200000
H      -43.01800000     -32.00900000     -68.81960000
C      -45.98970000     -31.87960000     -72.37320000
H      -45.88920000     -31.82350000     -71.32060000
H      -46.31570000     -30.85390000     -72.64430000
C      -44.58310000     -32.20330000     -72.87670000
C      -44.52020000     -32.31040000     -74.25340000
C      -43.35460000     -32.44190000     -72.21990000
H      -45.34040000     -31.97330000     -74.84190000
C      -42.33200000     -32.62370000     -73.17720000
C      -42.86970000     -32.48980000     -70.85150000
C      -41.50590000     -32.64880000     -70.80750000
S      -42.85580000     -32.60290000     -74.79940000
S      -40.76140000     -32.75130000     -72.39210000
H      -40.97080000     -32.76590000     -69.88520000
