40
Properties=species:S:1:pos:R:3 #=T CELL(abcABC):=T 1.889726e+02=T 90.00000=T Traj:=T positionsangstrom=T Step:=T 0=T Bead:=T pbc="F F F"
C      -47.12040000     -36.36900000     -69.27450000
C      -47.37110000     -35.07640000     -68.78990000
C      -48.01470000     -34.20600000     -69.68220000
C      -48.56970000     -34.63890000     -70.88960000
C      -48.44230000     -36.01160000     -71.25490000
C      -47.55870000     -36.81890000     -70.47130000
H      -46.62640000     -37.18030000     -68.70120000
H      -48.20550000     -33.19560000     -69.44360000
H      -48.79630000     -36.35210000     -72.20040000
H      -47.23150000     -37.77570000     -70.75260000
C      -49.40450000     -33.74340000     -71.78560000
H      -50.33680000     -33.44780000     -71.20300000
H      -49.70890000     -34.26840000     -72.73680000
C      -46.75630000     -34.59680000     -67.49450000
H      -47.56160000     -34.27610000     -66.88680000
H      -46.26000000     -35.43040000     -67.01570000
S      -48.56320000     -32.16380000     -72.27290000
S      -45.68610000     -33.08480000     -67.74080000
C      -46.93990000     -32.77850000     -72.91160000
H      -46.57460000     -33.62440000     -72.37380000
H      -46.91170000     -33.02720000     -74.03830000
C      -44.81000000     -33.33220000     -69.31110000
H      -45.52960000     -33.55460000     -70.10320000
H      -44.11880000     -34.22590000     -69.21690000
C      -43.88380000     -32.09170000     -69.76360000
H      -44.55080000     -31.28320000     -70.08980000
H      -43.35220000     -31.79470000     -68.85500000
C      -45.85410000     -31.65000000     -72.68390000
H      -45.96070000     -31.33820000     -71.62690000
H      -45.95650000     -30.72250000     -73.24970000
C      -44.50520000     -32.11070000     -73.13560000
C      -44.23240000     -32.27100000     -74.48800000
C      -43.31400000     -32.49180000     -72.32740000
H      -44.84590000     -32.03010000     -75.37140000
C      -42.23080000     -32.87860000     -73.11840000
C      -42.95890000     -32.44700000     -70.89510000
C      -41.67580000     -32.94590000     -70.73350000
S      -42.54700000     -32.71360000     -74.86130000
S      -40.82490000     -33.29460000     -72.26190000
H      -41.07800000     -32.96780000     -69.84610000
