40
Properties=species:S:1:pos:R:3 #=T CELL(abcABC):=T 1.889726e+02=T 90.00000=T Traj:=T positionsangstrom=T Step:=T 0=T Bead:=T pbc="F F F"
C      -47.39770000     -36.28130000     -69.11310000
C      -47.49940000     -34.95440000     -68.72040000
C      -48.14110000     -34.01220000     -69.56360000
C      -48.66140000     -34.48620000     -70.81590000
C      -48.57950000     -35.85450000     -71.11710000
C      -48.04910000     -36.77970000     -70.24660000
H      -46.94200000     -36.96950000     -68.40280000
H      -48.35090000     -32.96090000     -69.15870000
H      -49.10200000     -36.20210000     -72.07670000
H      -48.08610000     -37.82130000     -70.53250000
C      -49.42030000     -33.58370000     -71.76280000
H      -50.44780000     -33.32360000     -71.33720000
H      -49.49670000     -34.16220000     -72.67040000
C      -46.75880000     -34.45580000     -67.44980000
H      -47.47090000     -33.98000000     -66.78930000
H      -46.37960000     -35.33660000     -66.95040000
S      -48.29650000     -32.10720000     -72.04620000
S      -45.52490000     -33.19180000     -67.68160000
C      -46.70370000     -32.83920000     -72.58270000
H      -46.25980000     -33.45820000     -71.84390000
H      -46.87030000     -33.41810000     -73.44070000
C      -44.45060000     -33.47230000     -69.13420000
H      -44.98830000     -34.23540000     -69.72330000
H      -43.40910000     -33.78620000     -68.85250000
C      -44.26770000     -32.27020000     -70.09530000
H      -45.16600000     -31.94070000     -70.59100000
H      -43.84480000     -31.38790000     -69.51180000
C      -45.81150000     -31.76040000     -73.07910000
H      -45.59410000     -30.94700000     -72.32640000
H      -46.26270000     -31.30700000     -73.94610000
C      -44.42720000     -32.25900000     -73.53750000
C      -43.94740000     -32.26160000     -74.82570000
C      -43.40080000     -32.49780000     -72.56070000
H      -44.70240000     -32.28950000     -75.66800000
C      -42.23650000     -32.81320000     -73.19100000
C      -43.27810000     -32.67910000     -71.12610000
C      -42.02040000     -33.10690000     -70.80980000
S      -42.29820000     -32.73230000     -74.96830000
S      -40.93010000     -33.25210000     -72.17420000
H      -41.62850000     -33.20010000     -69.78510000
