40
Properties=species:S:1:pos:R:3 #=T CELL(abcABC):=T 1.889726e+02=T 90.00000=T Traj:=T positionsangstrom=T Step:=T 0=T Bead:=T pbc="F F F"
C      -46.75270000     -36.35260000     -69.57310000
C      -47.26830000     -35.22020000     -68.92760000
C      -48.22820000     -34.45270000     -69.57800000
C      -48.60120000     -34.70070000     -70.89250000
C      -48.20360000     -35.94970000     -71.37580000
C      -47.43860000     -36.88370000     -70.70680000
H      -45.92430000     -36.87010000     -69.07130000
H      -48.63960000     -33.53420000     -69.10010000
H      -48.53150000     -36.27650000     -72.37370000
H      -47.10380000     -37.76370000     -71.31180000
C      -49.51220000     -33.81650000     -71.69480000
H      -50.37180000     -33.46070000     -71.07590000
H      -49.92600000     -34.43780000     -72.57080000
C      -46.68550000     -34.65970000     -67.64500000
H      -47.43570000     -34.52760000     -66.88270000
H      -45.94420000     -35.32630000     -67.25350000
S      -48.65790000     -32.29060000     -72.27920000
S      -45.79450000     -33.08960000     -67.86170000
C      -46.87460000     -32.97260000     -72.51590000
H      -46.73500000     -33.89060000     -71.82660000
H      -46.87420000     -33.31860000     -73.50860000
C      -44.75350000     -33.31270000     -69.31760000
H      -45.42200000     -33.60970000     -70.16560000
H      -44.19190000     -34.23330000     -69.12430000
C      -43.72670000     -32.18400000     -69.65330000
H      -44.30250000     -31.29860000     -69.75930000
H      -43.11380000     -32.11930000     -68.76230000
C      -45.92740000     -31.82790000     -72.35980000
H      -45.89580000     -31.74600000     -71.24810000
H      -46.30100000     -30.85270000     -72.74060000
C      -44.55700000     -32.22750000     -72.96380000
C      -44.35440000     -32.20810000     -74.35960000
C      -43.30380000     -32.38890000     -72.28290000
H      -45.13800000     -31.95670000     -75.06950000
C      -42.26380000     -32.67440000     -73.18560000
C      -42.83860000     -32.43220000     -70.86610000
C      -41.46920000     -32.66000000     -70.75460000
S      -42.78290000     -32.66670000     -74.86240000
S      -40.74240000     -32.98950000     -72.33340000
H      -40.94070000     -32.72790000     -69.78130000
