40
Properties=species:S:1:pos:R:3 #=T CELL(abcABC):=T 1.889726e+02=T 90.00000=T Traj:=T positionsangstrom=T Step:=T 0=T Bead:=T pbc="F F F"
C      -47.55690000     -31.94650000     -69.27550000
C      -47.55120000     -31.19990000     -70.47210000
C      -46.35550000     -30.57660000     -70.83280000
C      -45.25270000     -30.50470000     -70.01780000
C      -45.25130000     -31.33670000     -68.90380000
C      -46.37940000     -32.06660000     -68.54970000
H      -48.46290000     -32.38270000     -68.87450000
H      -46.42190000     -29.88840000     -71.73960000
H      -44.38140000     -31.41340000     -68.31980000
H      -46.36260000     -32.58330000     -67.56760000
C      -43.91050000     -29.66270000     -70.26840000
H      -43.62990000     -29.41270000     -69.24180000
H      -44.08870000     -28.63610000     -70.69500000
C      -48.79840000     -30.96130000     -71.23350000
H      -49.78560000     -31.14290000     -70.73900000
H      -48.77020000     -29.91440000     -71.64370000
S      -42.57410000     -30.53400000     -71.18220000
S      -48.90420000     -31.94460000     -72.88600000
C      -42.87110000     -32.25650000     -71.07010000
H      -41.99540000     -32.73990000     -70.64660000
H      -43.59220000     -32.54360000     -70.28020000
C      -48.19520000     -33.60000000     -72.34080000
H      -48.64090000     -34.26580000     -73.10200000
H      -48.49110000     -33.86250000     -71.36460000
C      -46.60260000     -33.66890000     -72.47670000
H      -46.39810000     -33.53810000     -73.52710000
H      -46.06520000     -32.88930000     -71.98560000
C      -43.17010000     -32.94340000     -72.42820000
H      -42.43450000     -32.52640000     -73.17010000
H      -44.14680000     -32.61360000     -72.71560000
C      -43.31390000     -34.48970000     -72.12650000
C      -42.24280000     -35.33170000     -72.11860000
C      -44.52900000     -35.21560000     -71.87860000
H      -41.32650000     -34.85580000     -72.39340000
C      -44.25320000     -36.52560000     -71.47610000
C      -45.94310000     -34.99600000     -71.94440000
C      -46.65100000     -36.13380000     -71.64550000
S      -42.62500000     -36.94540000     -71.65950000
S      -45.66230000     -37.50730000     -71.20360000
H      -47.76640000     -36.17200000     -71.67440000
