40
Properties=species:S:1:pos:R:3 #=T CELL(abcABC):=T 1.889726e+02=T 90.00000=T Traj:=T positionsangstrom=T Step:=T 0=T Bead:=T pbc="F F F"
C      -47.56730000     -32.01900000     -69.23690000
C      -47.52430000     -31.15120000     -70.28110000
C      -46.30080000     -30.46000000     -70.50700000
C      -45.15530000     -30.74220000     -69.74670000
C      -45.25830000     -31.68270000     -68.69500000
C      -46.49270000     -32.29700000     -68.44620000
H      -48.47170000     -32.57390000     -69.19300000
H      -46.17180000     -29.73000000     -71.25170000
H      -44.37030000     -31.89760000     -68.09870000
H      -46.64460000     -32.94170000     -67.56640000
C      -43.81390000     -30.09680000     -70.09190000
H      -43.10810000     -30.32490000     -69.29240000
H      -43.91600000     -29.01550000     -70.02230000
C      -48.65660000     -30.76450000     -71.19260000
H      -49.55890000     -31.04490000     -70.85600000
H      -48.67730000     -29.70380000     -71.44070000
S      -43.26310000     -30.53240000     -71.71560000
S      -48.48840000     -31.65130000     -72.87280000
C      -43.30330000     -32.34150000     -71.39660000
H      -42.62420000     -32.63250000     -70.59090000
H      -44.28900000     -32.48510000     -70.96520000
C      -47.92220000     -33.34100000     -72.43170000
H      -48.23650000     -33.94660000     -73.33000000
H      -48.51890000     -33.66870000     -71.56720000
C      -46.42930000     -33.49020000     -72.05080000
H      -45.89870000     -33.08070000     -72.90390000
H      -46.20950000     -32.80540000     -71.12780000
C      -43.14540000     -33.15490000     -72.66750000
H      -42.08950000     -33.09600000     -72.97490000
H      -43.76130000     -32.88210000     -73.47620000
C      -43.26100000     -34.60660000     -72.35650000
C      -42.15830000     -35.39700000     -72.19140000
C      -44.51910000     -35.24190000     -71.98980000
H      -41.19980000     -35.24420000     -72.60270000
C      -44.26070000     -36.53000000     -71.53010000
C      -45.92920000     -34.87840000     -71.82410000
C      -46.67910000     -35.94810000     -71.31350000
S      -42.56950000     -37.01270000     -71.66800000
S      -45.65480000     -37.40710000     -71.13260000
H      -47.69790000     -36.07090000     -71.07850000
