40
Properties=species:S:1:pos:R:3 #=T CELL(abcABC):=T 1.889726e+02=T 90.00000=T Traj:=T positionsangstrom=T Step:=T 0=T Bead:=T pbc="F F F"
C      -46.62580000     -36.55520000     -69.34040000
C      -46.91430000     -35.22590000     -68.92010000
C      -47.78090000     -34.52870000     -69.74430000
C      -48.21570000     -35.01210000     -70.95990000
C      -47.96790000     -36.33890000     -71.32090000
C      -47.16670000     -37.09170000     -70.52320000
H      -46.02330000     -37.16290000     -68.70120000
H      -48.13240000     -33.51860000     -69.52900000
H      -48.30420000     -36.76310000     -72.21390000
H      -46.95630000     -38.14690000     -70.69330000
C      -49.15340000     -34.20340000     -71.82410000
H      -50.14250000     -34.12850000     -71.37300000
H      -49.23390000     -34.57760000     -72.80830000
C      -46.41360000     -34.76280000     -67.54170000
H      -47.36490000     -34.34290000     -67.02800000
H      -46.02150000     -35.50450000     -66.83060000
S      -48.88370000     -32.38720000     -72.07580000
S      -45.40280000     -33.29110000     -67.68130000
C      -47.35820000     -32.40130000     -73.06840000
H      -47.31810000     -33.30380000     -73.77000000
H      -47.18710000     -31.52120000     -73.64120000
C      -44.29770000     -33.46170000     -69.18700000
H      -44.82190000     -33.87240000     -70.04690000
H      -43.38330000     -34.01950000     -68.98950000
C      -43.95010000     -32.09830000     -69.73100000
H      -44.85950000     -31.57550000     -70.02020000
H      -43.46830000     -31.48320000     -69.00360000
C      -46.06390000     -32.50830000     -72.11670000
H      -46.06570000     -33.47420000     -71.51980000
H      -46.01420000     -31.63540000     -71.40820000
C      -44.82330000     -32.42490000     -72.91430000
C      -44.77030000     -32.39660000     -74.32280000
C      -43.50600000     -32.46150000     -72.29680000
H      -45.52310000     -32.47720000     -75.06340000
C      -42.46520000     -32.42970000     -73.24560000
C      -42.98110000     -32.28140000     -70.98200000
C      -41.61390000     -32.26880000     -70.90810000
S      -43.07180000     -32.44870000     -74.88880000
S      -40.91130000     -32.28790000     -72.54770000
H      -40.92280000     -32.02110000     -70.02240000
