40
Properties=species:S:1:pos:R:3 #=T CELL(abcABC):=T 1.889726e+02=T 90.00000=T Traj:=T positionsangstrom=T Step:=T 0=T Bead:=T pbc="F F F"
C      -45.85820000     -36.18970000     -70.17960000
C      -46.28840000     -35.21200000     -69.32330000
C      -47.43580000     -34.46080000     -69.62030000
C      -48.23230000     -34.87550000     -70.75330000
C      -47.85000000     -35.99120000     -71.51640000
C      -46.60050000     -36.51600000     -71.29990000
H      -44.89050000     -36.59270000     -69.96380000
H      -47.84980000     -33.70130000     -68.88140000
H      -48.50800000     -36.32340000     -72.35050000
H      -46.39170000     -37.45740000     -71.92180000
C      -49.52420000     -34.16820000     -71.12430000
H      -50.23100000     -33.95640000     -70.28120000
H      -50.11050000     -34.76990000     -71.72500000
C      -45.59670000     -34.97500000     -68.00480000
H      -46.24620000     -35.12930000     -67.11060000
H      -44.67990000     -35.51750000     -67.88010000
S      -49.23130000     -32.60140000     -71.90200000
S      -45.11420000     -33.19730000     -67.66280000
C      -47.67690000     -32.73920000     -72.89170000
H      -47.56140000     -33.80450000     -73.25800000
H      -47.79060000     -32.21960000     -73.74930000
C      -43.97750000     -33.02480000     -69.00650000
H      -44.15610000     -33.81050000     -69.69330000
H      -42.89000000     -33.23390000     -68.75600000
C      -43.97170000     -31.65490000     -69.69950000
H      -44.98450000     -31.32290000     -69.80750000
H      -43.45600000     -30.92550000     -69.11110000
C      -46.38180000     -32.22460000     -72.19260000
H      -46.28460000     -32.66470000     -71.17940000
H      -46.41030000     -31.14420000     -71.96280000
C      -45.08980000     -32.46670000     -72.94910000
C      -44.97210000     -32.98490000     -74.22280000
C      -43.74130000     -32.29420000     -72.30740000
H      -45.86930000     -33.37560000     -74.78330000
C      -42.67140000     -32.62960000     -73.18160000
C      -43.23280000     -31.81490000     -71.02440000
C      -41.82610000     -31.85460000     -70.92400000
S      -43.31690000     -33.29220000     -74.65020000
S      -41.10320000     -32.27810000     -72.50520000
H      -41.24710000     -31.51820000     -70.12710000
