40
Properties=species:S:1:pos:R:3 #=T CELL(abcABC):=T 1.889726e+02=T 90.00000=T Traj:=T positionsangstrom=T Step:=T 0=T Bead:=T pbc="F F F"
C      -47.49740000     -32.00650000     -69.30080000
C      -47.51250000     -31.19340000     -70.45340000
C      -46.36650000     -30.40980000     -70.73360000
C      -45.22200000     -30.40120000     -69.94090000
C      -45.23370000     -31.19980000     -68.81540000
C      -46.37660000     -31.92830000     -68.46610000
H      -48.38590000     -32.56790000     -69.09460000
H      -46.39410000     -29.83610000     -71.64310000
H      -44.39680000     -31.12090000     -68.09550000
H      -46.30870000     -32.64760000     -67.63160000
C      -44.05690000     -29.55730000     -70.30850000
H      -43.57460000     -28.98680000     -69.45780000
H      -44.36520000     -28.89860000     -71.07090000
C      -48.80160000     -31.16810000     -71.29700000
H      -49.52120000     -31.53970000     -70.57250000
H      -48.94410000     -30.09350000     -71.67840000
S      -42.55310000     -30.48210000     -71.13840000
S      -48.73220000     -32.06310000     -72.89410000
C      -42.82760000     -32.32840000     -71.09120000
H      -41.80380000     -32.63080000     -70.77190000
H      -43.55400000     -32.58920000     -70.37570000
C      -48.13140000     -33.79540000     -72.46470000
H      -48.32930000     -34.46230000     -73.29790000
H      -48.77540000     -34.37380000     -71.71920000
C      -46.61000000     -33.68470000     -72.19830000
H      -46.11480000     -33.12500000     -72.99010000
H      -46.64240000     -33.18280000     -71.20990000
C      -43.26370000     -32.91270000     -72.41650000
H      -42.58490000     -32.76820000     -73.25960000
H      -44.25200000     -32.50080000     -72.67940000
C      -43.36540000     -34.46310000     -72.17470000
C      -42.23530000     -35.21170000     -72.05200000
C      -44.55120000     -35.24040000     -72.01640000
H      -41.32350000     -34.68870000     -72.19670000
C      -44.29290000     -36.57140000     -71.67890000
C      -45.97220000     -34.99840000     -71.95550000
C      -46.70840000     -36.12050000     -71.69340000
S      -42.62150000     -36.89530000     -71.52990000
S      -45.77490000     -37.55250000     -71.38320000
H      -47.81000000     -36.08450000     -71.49980000
