40
Properties=species:S:1:pos:R:3 #=T CELL(abcABC):=T 1.889726e+02=T 90.00000=T Traj:=T positionsangstrom=T Step:=T 0=T Bead:=T pbc="F F F"
C      -45.91690000     -36.52280000     -69.40080000
C      -46.44200000     -35.41750000     -68.64730000
C      -47.55840000     -34.69720000     -69.13290000
C      -48.27790000     -35.12120000     -70.25230000
C      -47.78510000     -36.18050000     -71.03290000
C      -46.61320000     -36.86900000     -70.58370000
H      -45.10000000     -37.16510000     -69.00140000
H      -47.90240000     -33.95610000     -68.41330000
H      -48.25380000     -36.63950000     -71.86640000
H      -46.19520000     -37.77890000     -71.10510000
C      -49.40580000     -34.31500000     -70.71820000
H      -50.22190000     -34.06420000     -70.02490000
H      -49.98230000     -34.81140000     -71.49690000
C      -45.76770000     -34.94330000     -67.43970000
H      -46.48150000     -34.50360000     -66.67720000
H      -45.09270000     -35.70310000     -67.11830000
S      -48.94050000     -32.54820000     -71.26960000
S      -44.71560000     -33.43270000     -67.81840000
C      -47.51700000     -32.69460000     -72.46960000
H      -47.23200000     -33.71150000     -72.43920000
H      -47.90670000     -32.50600000     -73.48460000
C      -44.03630000     -33.65010000     -69.54240000
H      -44.88670000     -33.79770000     -70.29950000
H      -43.30100000     -34.47700000     -69.56440000
C      -43.44940000     -32.26890000     -69.95050000
H      -44.20690000     -31.51310000     -69.84360000
H      -42.64120000     -31.92520000     -69.36030000
C      -46.27390000     -31.88710000     -71.96990000
H      -45.90810000     -32.33120000     -71.02720000
H      -46.51210000     -30.80840000     -71.86350000
C      -45.15950000     -31.94980000     -73.00950000
C      -45.37390000     -31.82700000     -74.34410000
C      -43.80020000     -32.21420000     -72.67180000
H      -46.27150000     -31.54770000     -74.83420000
C      -42.93620000     -32.24960000     -73.74590000
C      -42.98950000     -32.33730000     -71.42850000
C      -41.67470000     -32.69250000     -71.64340000
S      -43.81800000     -31.95170000     -75.19910000
S      -41.28750000     -32.69350000     -73.37370000
H      -40.98780000     -32.87910000     -70.87130000
