40
Properties=species:S:1:pos:R:3 #=T CELL(abcABC):=T 1.889726e+02=T 90.00000=T Traj:=T positionsangstrom=T Step:=T 0=T Bead:=T pbc="F F F"
C      -46.04580000     -36.50840000     -69.39040000
C      -46.49280000     -35.29390000     -68.73580000
C      -47.65190000     -34.64250000     -69.06540000
C      -48.30140000     -35.11110000     -70.24960000
C      -47.85000000     -36.20610000     -70.93430000
C      -46.75020000     -36.91990000     -70.51150000
H      -45.13410000     -36.93700000     -68.92030000
H      -47.98780000     -33.73320000     -68.58440000
H      -48.44120000     -36.47120000     -71.84430000
H      -46.47360000     -37.80030000     -71.06400000
C      -49.51390000     -34.28700000     -70.83870000
H      -50.14200000     -34.12370000     -69.94390000
H      -50.02020000     -34.81860000     -71.64460000
C      -45.63950000     -34.95500000     -67.46270000
H      -46.21720000     -34.81710000     -66.52240000
H      -44.92360000     -35.73260000     -67.27910000
S      -48.88340000     -32.61690000     -71.29220000
S      -44.73610000     -33.31460000     -67.68970000
C      -47.33410000     -32.91110000     -72.22380000
H      -46.87950000     -33.90790000     -71.86670000
H      -47.51900000     -32.93970000     -73.29480000
C      -44.04080000     -33.70280000     -69.37610000
H      -44.75240000     -34.14570000     -69.97050000
H      -43.26690000     -34.45460000     -69.26300000
C      -43.41560000     -32.44400000     -70.04090000
H      -44.17950000     -31.60650000     -69.88380000
H      -42.59310000     -32.20470000     -69.33300000
C      -46.25010000     -31.74640000     -71.97870000
H      -46.00450000     -31.79530000     -70.94150000
H      -46.69620000     -30.81370000     -72.24590000
C      -45.15230000     -31.92440000     -72.95540000
C      -45.28320000     -31.62060000     -74.30170000
C      -43.80380000     -32.23210000     -72.62030000
H      -46.16540000     -31.39440000     -74.91370000
C      -42.98100000     -32.25960000     -73.79330000
C      -42.95230000     -32.51890000     -71.51590000
C      -41.59650000     -32.68350000     -71.82650000
S      -43.84860000     -31.95840000     -75.22140000
S      -41.28820000     -32.66980000     -73.54150000
H      -40.93190000     -32.99110000     -71.03400000
