40
Properties=species:S:1:pos:R:3 #=T CELL(abcABC):=T 1.889726e+02=T 90.00000=T Traj:=T positionsangstrom=T Step:=T 0=T Bead:=T pbc="F F F"
C      -45.65950000     -36.13230000     -69.80040000
C      -46.44500000     -35.28930000     -69.01620000
C      -47.65080000     -34.82820000     -69.50780000
C      -48.10510000     -35.06520000     -70.82570000
C      -47.33380000     -35.93420000     -71.58650000
C      -46.08590000     -36.34840000     -71.15840000
H      -44.73040000     -36.50900000     -69.37170000
H      -48.23990000     -34.12450000     -68.81740000
H      -47.74120000     -36.25050000     -72.56310000
H      -45.52480000     -37.02370000     -71.78010000
C      -49.40870000     -34.41380000     -71.31770000
H      -50.18260000     -34.58830000     -70.60390000
H      -49.76430000     -34.70240000     -72.24490000
C      -45.80840000     -34.92890000     -67.65490000
H      -46.45780000     -34.82400000     -66.76920000
H      -45.04020000     -35.72700000     -67.42390000
S      -49.09560000     -32.53510000     -71.25310000
S      -45.08010000     -33.20520000     -67.81350000
C      -47.69380000     -32.38270000     -72.45880000
H      -47.90170000     -33.19130000     -73.26610000
H      -47.89230000     -31.44790000     -72.96240000
C      -43.78460000     -33.37530000     -69.21010000
H      -44.15940000     -33.96130000     -69.98370000
H      -42.83210000     -33.79370000     -68.75650000
C      -43.55080000     -31.90260000     -69.75050000
H      -44.50230000     -31.36960000     -69.69920000
H      -42.80610000     -31.38250000     -69.15620000
C      -46.30540000     -32.50520000     -71.77950000
H      -46.46140000     -33.41900000     -71.23200000
H      -46.24940000     -31.66200000     -71.12980000
C      -45.12740000     -32.69500000     -72.70820000
C      -45.30820000     -32.99030000     -74.03660000
C      -43.74460000     -32.40390000     -72.37620000
H      -46.29660000     -33.19930000     -74.45230000
C      -42.92660000     -32.44650000     -73.50740000
C      -43.01790000     -31.96970000     -71.19500000
C      -41.68350000     -31.85590000     -71.46020000
S      -43.82390000     -32.96780000     -74.96310000
S      -41.30810000     -32.09980000     -73.06440000
H      -40.86530000     -31.57250000     -70.81940000
