40
Properties=species:S:1:pos:R:3 #=T CELL(abcABC):=T 1.889726e+02=T 90.00000=T Traj:=T positionsangstrom=T Step:=T 0=T Bead:=T pbc="F F F"
C      -45.79280000     -36.56730000     -69.47470000
C      -46.25660000     -35.39770000     -68.78390000
C      -47.42060000     -34.75880000     -69.23380000
C      -48.08010000     -35.15000000     -70.42370000
C      -47.51450000     -36.09910000     -71.20580000
C      -46.41670000     -36.76110000     -70.73520000
H      -45.07050000     -37.21680000     -69.05830000
H      -47.79140000     -33.89140000     -68.59250000
H      -47.95270000     -36.50000000     -72.13420000
H      -45.98050000     -37.63060000     -71.25370000
C      -49.27970000     -34.31870000     -70.89100000
H      -50.08480000     -34.40730000     -70.11570000
H      -49.75290000     -34.74680000     -71.80930000
C      -45.62760000     -34.98090000     -67.44870000
H      -46.42850000     -34.89440000     -66.79070000
H      -44.84700000     -35.74270000     -67.06650000
S      -48.96650000     -32.52550000     -71.23000000
S      -44.78250000     -33.30960000     -67.58890000
C      -47.66120000     -32.49230000     -72.48570000
H      -47.60580000     -33.56660000     -72.87760000
H      -47.99140000     -31.85740000     -73.26780000
C      -44.11820000     -33.51300000     -69.28100000
H      -44.90730000     -33.89430000     -69.84770000
H      -43.42840000     -34.38210000     -69.20980000
C      -43.51290000     -32.24060000     -69.87200000
H      -44.26050000     -31.43060000     -69.68800000
H      -42.55510000     -31.94070000     -69.36160000
C      -46.36120000     -31.93710000     -72.00240000
H      -45.97100000     -32.50010000     -71.15290000
H      -46.39350000     -30.97830000     -71.54590000
C      -45.22940000     -32.02620000     -72.97630000
C      -45.42550000     -32.01920000     -74.32200000
C      -43.84740000     -32.24710000     -72.61580000
H      -46.32710000     -31.95450000     -74.81570000
C      -43.05450000     -32.46260000     -73.75670000
C      -43.05980000     -32.33080000     -71.34170000
C      -41.72460000     -32.45550000     -71.64130000
S      -43.94170000     -32.26850000     -75.24250000
S      -41.32020000     -32.56060000     -73.40200000
H      -40.88690000     -32.32470000     -70.92450000
