40
Properties=species:S:1:pos:R:3 #=T CELL(abcABC):=T 1.889726e+02=T 90.00000=T Traj:=T positionsangstrom=T Step:=T 0=T Bead:=T pbc="F F F"
C      -43.88070000     -30.03510000     -70.65130000
C      -43.73290000     -30.94430000     -69.61770000
C      -44.83610000     -31.47690000     -68.99880000
C      -46.13560000     -30.99380000     -69.36040000
C      -46.30060000     -30.06240000     -70.36350000
C      -45.14080000     -29.59540000     -71.03140000
H      -43.07170000     -29.77070000     -71.28510000
H      -44.69120000     -32.37510000     -68.35440000
H      -47.25920000     -29.65090000     -70.64600000
H      -45.24060000     -28.96420000     -71.91650000
C      -47.35870000     -31.62880000     -68.58810000
H      -48.30370000     -31.15500000     -68.96190000
H      -47.25050000     -31.53910000     -67.54340000
C      -42.42780000     -31.43740000     -69.18150000
H      -41.63800000     -31.16430000     -69.93810000
H      -42.02840000     -30.93650000     -68.20670000
S      -47.48090000     -33.42680000     -68.69650000
S      -42.18620000     -33.25770000     -68.81190000
C      -48.11920000     -33.81550000     -70.39150000
H      -48.12410000     -34.96200000     -70.39710000
H      -49.13350000     -33.58870000     -70.44930000
C      -42.64950000     -33.89050000     -70.56400000
H      -42.29380000     -34.93510000     -70.45990000
H      -42.10320000     -33.31210000     -71.35400000
C      -44.12930000     -33.95830000     -70.82520000
H      -44.64380000     -34.50420000     -70.01610000
H      -44.46710000     -32.97730000     -70.94450000
C      -47.46200000     -33.10420000     -71.64730000
H      -46.70130000     -32.46770000     -71.27430000
H      -48.17490000     -32.43370000     -72.06910000
C      -47.04350000     -34.05250000     -72.76390000
C      -47.92060000     -34.47320000     -73.72750000
C      -45.69910000     -34.65870000     -72.94410000
H      -48.87920000     -33.99750000     -73.82420000
C      -45.63660000     -35.38990000     -74.14000000
C      -44.43270000     -34.73370000     -72.20370000
C      -43.51400000     -35.51860000     -72.85190000
S      -47.10620000     -35.30100000     -75.06280000
S      -44.09120000     -36.21260000     -74.36140000
H      -42.49530000     -35.80090000     -72.54760000
