40
Properties=species:S:1:pos:R:3 #=T CELL(abcABC):=T 1.889726e+02=T 90.00000=T Traj:=T positionsangstrom=T Step:=T 0=T Bead:=T pbc="F F F"
C      -46.87390000     -30.47860000     -69.59120000
C      -47.13260000     -30.53680000     -71.00580000
C      -45.98260000     -30.37850000     -71.76740000
C      -44.68250000     -30.16970000     -71.23560000
C      -44.51650000     -30.04290000     -69.83710000
C      -45.64290000     -30.20800000     -69.01650000
H      -47.68790000     -30.67270000     -68.94510000
H      -46.10670000     -30.13930000     -72.83690000
H      -43.55070000     -29.83770000     -69.40700000
H      -45.61240000     -30.05540000     -67.93530000
C      -43.64140000     -29.75140000     -72.21640000
H      -42.67210000     -29.45670000     -71.77770000
H      -43.97270000     -28.82020000     -72.64840000
C      -48.47190000     -30.66390000     -71.62580000
H      -49.21590000     -30.11610000     -71.05200000
H      -48.39270000     -30.38040000     -72.64140000
S      -43.30530000     -31.02120000     -73.55060000
S      -49.09670000     -32.51000000     -71.69530000
C      -42.69630000     -32.49740000     -72.57520000
H      -42.03680000     -33.13700000     -73.21190000
H      -42.12450000     -32.13130000     -71.67470000
C      -48.01830000     -33.58650000     -70.70650000
H      -48.52900000     -34.34380000     -70.01710000
H      -47.28020000     -32.93210000     -70.09010000
C      -47.06320000     -34.34320000     -71.69780000
H      -47.63070000     -34.87170000     -72.43470000
H      -46.48590000     -33.52280000     -72.18450000
C      -43.93530000     -33.30180000     -72.05930000
H      -44.74170000     -33.41390000     -72.80250000
H      -44.28080000     -32.62340000     -71.21160000
C      -43.67120000     -34.69940000     -71.60310000
C      -42.48180000     -35.36340000     -71.69660000
C      -44.77000000     -35.50420000     -71.22980000
H      -41.66940000     -34.92550000     -72.20950000
C      -44.30760000     -36.73650000     -70.74040000
C      -46.17610000     -35.36650000     -71.09450000
C      -46.77720000     -36.49160000     -70.48460000
S      -42.56170000     -37.01500000     -71.03400000
S      -45.63810000     -37.72570000     -70.10890000
H      -47.83730000     -36.62120000     -70.45770000
