40
Properties=species:S:1:pos:R:3 #=T CELL(abcABC):=T 1.889726e+02=T 90.00000=T Traj:=T positionsangstrom=T Step:=T 0=T Bead:=T pbc="F F F"
C      -47.14230000     -31.18440000     -69.32040000
C      -46.96440000     -30.97510000     -70.69850000
C      -45.68090000     -30.59560000     -71.15160000
C      -44.57640000     -30.48320000     -70.28580000
C      -44.78820000     -30.76510000     -68.93420000
C      -46.04820000     -31.02980000     -68.45180000
H      -48.07440000     -31.57200000     -68.92350000
H      -45.55920000     -30.22000000     -72.20870000
H      -43.94970000     -30.55300000     -68.23110000
H      -46.12140000     -31.43470000     -67.39330000
C      -43.35260000     -29.85360000     -70.80160000
H      -42.54910000     -30.16240000     -70.05690000
H      -43.47160000     -28.76020000     -70.79300000
C      -48.11070000     -31.05200000     -71.61080000
H      -48.62740000     -30.08180000     -71.62920000
H      -47.74970000     -31.21800000     -72.68340000
S      -42.80120000     -30.42670000     -72.52630000
S      -49.38710000     -32.37090000     -71.34750000
C      -42.63770000     -32.27760000     -72.39400000
H      -41.75380000     -32.54140000     -72.98750000
H      -42.35240000     -32.56660000     -71.39560000
C      -48.35670000     -33.94960000     -71.09050000
H      -48.96470000     -34.80690000     -71.36700000
H      -48.17960000     -34.01790000     -70.02230000
C      -47.07120000     -33.98010000     -71.82430000
H      -47.30080000     -33.81470000     -72.85300000
H      -46.43440000     -33.12370000     -71.54010000
C      -43.87990000     -33.02870000     -72.73160000
H      -44.11900000     -33.06230000     -73.75680000
H      -44.79370000     -32.68900000     -72.26480000
C      -43.76900000     -34.48160000     -72.33360000
C      -42.58000000     -35.14300000     -72.39160000
C      -44.82060000     -35.35380000     -71.89220000
H      -41.72770000     -34.73620000     -72.91670000
C      -44.38100000     -36.64680000     -71.50920000
C      -46.25380000     -35.23420000     -71.65260000
C      -46.72810000     -36.34180000     -70.93440000
S      -42.70070000     -36.80920000     -71.86950000
S      -45.61260000     -37.69670000     -70.77020000
H      -47.70750000     -36.56890000     -70.63260000
