40
Properties=species:S:1:pos:R:3 #=T CELL(abcABC):=T 1.889726e+02=T 90.00000=T Traj:=T positionsangstrom=T Step:=T 0=T Bead:=T pbc="F F F"
C      -47.18310000     -30.70850000     -69.55620000
C      -47.10420000     -30.74780000     -70.93780000
C      -45.85280000     -30.48800000     -71.61920000
C      -44.67080000     -30.33060000     -70.81950000
C      -44.79860000     -30.39940000     -69.43930000
C      -46.04180000     -30.58400000     -68.76560000
H      -48.16000000     -30.65990000     -69.04020000
H      -45.86160000     -30.23140000     -72.68000000
H      -43.86620000     -30.27310000     -68.80550000
H      -46.14680000     -30.51670000     -67.64650000
C      -43.32620000     -29.94570000     -71.37100000
H      -42.56930000     -30.17080000     -70.65450000
H      -43.22080000     -28.83330000     -71.44360000
C      -48.39850000     -30.81490000     -71.68540000
H      -49.09010000     -30.16950000     -71.16720000
H      -48.25290000     -30.53560000     -72.76150000
S      -42.99730000     -30.67790000     -73.06070000
S      -49.23550000     -32.45430000     -71.71930000
C      -42.55480000     -32.39980000     -72.69860000
H      -42.04740000     -32.87470000     -73.52230000
H      -41.90850000     -32.43950000     -71.83310000
C      -48.26630000     -33.62500000     -70.76560000
H      -48.87700000     -34.47780000     -70.58850000
H      -47.93090000     -33.14620000     -69.85290000
C      -46.99720000     -34.07230000     -71.63280000
H      -47.27720000     -34.20790000     -72.64610000
H      -46.30680000     -33.22460000     -71.59720000
C      -43.88040000     -33.22000000     -72.32980000
H      -44.45780000     -33.30160000     -73.20180000
H      -44.48930000     -32.73450000     -71.55290000
C      -43.57990000     -34.61070000     -71.84960000
C      -42.43890000     -35.36320000     -71.89700000
C      -44.75150000     -35.41590000     -71.37300000
H      -41.48360000     -35.08880000     -72.44220000
C      -44.32360000     -36.71980000     -71.02650000
C      -46.20730000     -35.25450000     -71.13530000
C      -46.77570000     -36.39560000     -70.69360000
S      -42.63660000     -37.03740000     -71.45380000
S      -45.61690000     -37.69270000     -70.41970000
H      -47.86150000     -36.52540000     -70.68730000
