40
Properties=species:S:1:pos:R:3 #=T CELL(abcABC):=T 1.889726e+02=T 90.00000=T Traj:=T positionsangstrom=T Step:=T 0=T Bead:=T pbc="F F F"
C      -47.12220000     -31.26800000     -69.23670000
C      -47.03520000     -30.76340000     -70.52170000
C      -45.79350000     -30.36820000     -71.00300000
C      -44.69890000     -30.38210000     -70.12490000
C      -44.83020000     -30.84430000     -68.83190000
C      -46.09350000     -31.23210000     -68.31390000
H      -48.10630000     -31.56520000     -68.95160000
H      -45.66660000     -30.13890000     -72.01960000
H      -43.96180000     -30.95650000     -68.18720000
H      -46.21030000     -31.55600000     -67.32850000
C      -43.32590000     -30.01210000     -70.72410000
H      -42.50270000     -30.24100000     -70.03480000
H      -43.19740000     -28.90240000     -70.70060000
C      -48.24640000     -30.81240000     -71.50330000
H      -48.91560000     -30.02860000     -71.37280000
H      -47.86160000     -30.81790000     -72.54270000
S      -42.92670000     -30.40670000     -72.39680000
S      -49.31200000     -32.39290000     -71.24780000
C      -42.71630000     -32.21990000     -72.29150000
H      -41.75890000     -32.49800000     -72.86140000
H      -42.55990000     -32.45120000     -71.24240000
C      -48.31030000     -33.95930000     -71.08850000
H      -49.04710000     -34.66530000     -71.51450000
H      -48.11940000     -34.10880000     -69.99220000
C      -47.04820000     -33.94710000     -71.89230000
H      -47.44190000     -33.68440000     -72.93080000
H      -46.53720000     -33.07020000     -71.58370000
C      -43.83480000     -33.09370000     -72.85520000
H      -43.90800000     -32.89820000     -73.99400000
H      -44.74680000     -32.58860000     -72.46500000
C      -43.64310000     -34.52870000     -72.41370000
C      -42.44710000     -35.20990000     -72.44750000
C      -44.73710000     -35.35360000     -71.98570000
H      -41.48770000     -34.83700000     -72.77470000
C      -44.31270000     -36.66460000     -71.66590000
C      -46.20270000     -35.21320000     -71.82080000
C      -46.73930000     -36.35570000     -71.23490000
S      -42.62570000     -36.84890000     -71.86870000
S      -45.62730000     -37.72290000     -71.02520000
H      -47.77420000     -36.52430000     -71.00000000
