40
Properties=species:S:1:pos:R:3 #=T CELL(abcABC):=T 1.889726e+02=T 90.00000=T Traj:=T positionsangstrom=T Step:=T 0=T Bead:=T pbc="F F F"
C      -45.16100000     -33.62240000     -75.00910000
C      -44.66760000     -32.42630000     -74.34400000
C      -43.53920000     -32.57100000     -73.57020000
C      -42.81260000     -33.77030000     -73.46270000
C      -43.34930000     -34.89360000     -74.10050000
C      -44.50790000     -34.85770000     -74.83310000
H      -46.14670000     -33.52850000     -75.54940000
H      -43.20930000     -31.74330000     -72.99960000
H      -42.78730000     -35.87750000     -74.04710000
H      -44.95530000     -35.78640000     -75.25150000
C      -41.49110000     -33.99570000     -72.72400000
H      -40.70230000     -33.48090000     -73.22780000
H      -41.26260000     -35.10520000     -72.54290000
C      -45.38680000     -31.16620000     -74.63950000
H      -44.75700000     -30.33500000     -74.22540000
H      -45.58020000     -31.19860000     -75.69180000
S      -41.26290000     -33.31700000     -71.09810000
S      -47.17670000     -31.07990000     -74.01920000
C      -42.64740000     -34.04150000     -70.12320000
H      -42.83600000     -35.03990000     -70.32520000
H      -42.31450000     -34.05130000     -69.07120000
C      -47.28080000     -31.69250000     -72.28810000
H      -48.34600000     -31.54110000     -72.23730000
H      -46.78530000     -31.07750000     -71.51250000
C      -46.98220000     -33.17680000     -72.05310000
H      -47.49880000     -33.79740000     -72.79510000
H      -45.90380000     -33.25490000     -72.23280000
C      -43.96530000     -33.33150000     -70.33000000
H      -44.37910000     -33.69320000     -71.31610000
H      -43.97110000     -32.22920000     -70.32350000
C      -44.97650000     -33.80800000     -69.32660000
C      -44.72320000     -34.08490000     -68.06700000
C      -46.41640000     -33.73690000     -69.56450000
H      -43.74040000     -34.30620000     -67.61380000
C      -47.09990000     -33.99980000     -68.39220000
C      -47.30060000     -33.51660000     -70.66510000
C      -48.58940000     -33.71910000     -70.25150000
S      -46.07010000     -34.35320000     -67.06000000
S      -48.79790000     -34.23600000     -68.55290000
H      -49.40150000     -33.66200000     -71.00120000
