40
Properties=species:S:1:pos:R:3 #=T CELL(abcABC):=T 1.889726e+02=T 90.00000=T Traj:=T positionsangstrom=T Step:=T 0=T Bead:=T pbc="F F F"
C      -44.06710000     -29.79910000     -70.10890000
C      -43.88920000     -30.99520000     -69.41000000
C      -45.05300000     -31.64730000     -68.89650000
C      -46.29270000     -31.11900000     -69.10050000
C      -46.41210000     -30.00680000     -69.92490000
C      -45.34930000     -29.29790000     -70.35360000
H      -43.22360000     -29.21890000     -70.47220000
H      -44.92840000     -32.49670000     -68.25920000
H      -47.40310000     -29.58040000     -70.15830000
H      -45.49720000     -28.44010000     -70.94150000
C      -47.39970000     -31.79290000     -68.44100000
H      -48.36250000     -31.25190000     -68.61080000
H      -47.27310000     -31.81660000     -67.31830000
C      -42.46210000     -31.50590000     -69.18140000
H      -41.80690000     -31.25980000     -70.05570000
H      -42.13880000     -31.00930000     -68.24140000
S      -47.51990000     -33.53350000     -68.99160000
S      -42.32230000     -33.32220000     -68.89920000
C      -48.02920000     -33.57330000     -70.77170000
H      -48.10500000     -34.56920000     -70.97720000
H      -49.02830000     -33.12970000     -70.86550000
C      -42.62390000     -34.05500000     -70.58820000
H      -42.10660000     -35.03250000     -70.61960000
H      -42.04300000     -33.37930000     -71.23270000
C      -44.11080000     -34.13850000     -70.91720000
H      -44.57250000     -34.63570000     -70.05660000
H      -44.41940000     -33.06470000     -71.05830000
C      -47.02560000     -32.94340000     -71.77930000
H      -46.08980000     -32.77780000     -71.23020000
H      -47.38330000     -32.04320000     -72.21960000
C      -46.75540000     -33.80910000     -72.94090000
C      -47.57310000     -33.90130000     -74.00450000
C      -45.58380000     -34.67130000     -73.03090000
H      -48.54340000     -33.43670000     -74.07380000
C      -45.52770000     -35.35370000     -74.25440000
C      -44.37730000     -34.94230000     -72.20890000
C      -43.49160000     -35.81230000     -72.80260000
S      -47.05020000     -35.14180000     -75.16570000
S      -44.15150000     -36.38850000     -74.34590000
H      -42.58600000     -36.23880000     -72.39650000
