40
Properties=species:S:1:pos:R:3 #=T CELL(abcABC):=T 1.889726e+02=T 90.00000=T Traj:=T positionsangstrom=T Step:=T 0=T Bead:=T pbc="F F F"
C      -47.69230000     -33.31600000     -67.18050000
C      -47.80060000     -33.68170000     -68.53960000
C      -47.85130000     -32.71640000     -69.59340000
C      -47.79420000     -31.38870000     -69.21590000
C      -47.67070000     -30.99460000     -67.88370000
C      -47.57940000     -31.91270000     -66.84220000
H      -47.81920000     -34.14380000     -66.41880000
H      -47.69940000     -32.89820000     -70.65390000
H      -47.55480000     -29.94190000     -67.68640000
H      -47.57030000     -31.47360000     -65.86280000
C      -47.73190000     -30.34840000     -70.30430000
H      -48.13230000     -29.42540000     -69.94800000
H      -48.16870000     -30.51110000     -71.24280000
C      -47.78640000     -35.13030000     -68.81800000
H      -48.25740000     -35.65600000     -67.97840000
H      -48.34180000     -35.36020000     -69.71870000
S      -45.97630000     -29.74710000     -70.81360000
S      -46.04950000     -35.80470000     -68.84120000
C      -45.61510000     -30.73130000     -72.31730000
H      -46.46870000     -30.81720000     -72.95000000
H      -44.90700000     -30.05460000     -72.80650000
C      -45.52380000     -35.66160000     -70.66210000
H      -46.27610000     -35.05250000     -71.10100000
H      -45.62600000     -36.64820000     -71.14580000
C      -44.16840000     -35.07260000     -70.66430000
H      -44.21960000     -34.06180000     -70.23580000
H      -43.53070000     -35.65240000     -70.00440000
C      -44.99810000     -32.08410000     -72.03430000
H      -45.71480000     -32.74220000     -71.57440000
H      -44.18370000     -31.86680000     -71.33520000
C      -44.36140000     -32.77600000     -73.21380000
C      -44.20350000     -32.27270000     -74.47590000
C      -43.71690000     -34.09350000     -73.10070000
H      -44.57100000     -31.28580000     -74.83980000
C      -43.10780000     -34.50210000     -74.33040000
C      -43.52220000     -34.99640000     -72.01250000
C      -42.82580000     -36.12040000     -72.50610000
S      -43.24290000     -33.30900000     -75.52200000
S      -42.30380000     -36.01870000     -74.15200000
H      -42.45410000     -36.82790000     -71.81900000
