40
Properties=species:S:1:pos:R:3 #=T CELL(abcABC):=T 1.889726e+02=T 90.00000=T Traj:=T positionsangstrom=T Step:=T 0=T Bead:=T pbc="F F F"
C      -47.69380000     -33.25650000     -67.10760000
C      -47.76090000     -33.68300000     -68.44190000
C      -47.85190000     -32.78500000     -69.48990000
C      -47.86660000     -31.40640000     -69.20570000
C      -47.67340000     -30.95000000     -67.88810000
C      -47.53080000     -31.84230000     -66.82370000
H      -47.43940000     -34.06560000     -66.40880000
H      -48.02250000     -33.17670000     -70.49000000
H      -47.47080000     -29.87810000     -67.68660000
H      -47.17770000     -31.50790000     -65.89190000
C      -47.78870000     -30.50030000     -70.48010000
H      -48.42430000     -29.55840000     -70.26880000
H      -48.08740000     -31.05970000     -71.35290000
C      -47.76130000     -35.14130000     -68.79680000
H      -48.33210000     -35.62390000     -67.93090000
H      -48.29240000     -35.31860000     -69.73770000
S      -46.05530000     -29.92200000     -70.72360000
S      -46.11990000     -36.00250000     -68.89870000
C      -45.61860000     -30.70610000     -72.34350000
H      -46.46560000     -30.99370000     -73.01770000
H      -45.02540000     -29.93160000     -72.90090000
C      -45.44210000     -35.48570000     -70.60450000
H      -46.21630000     -34.82020000     -71.01870000
H      -45.30140000     -36.42470000     -71.19500000
C      -44.07340000     -34.71520000     -70.63270000
H      -44.07810000     -33.68270000     -70.31370000
H      -43.56020000     -35.21590000     -69.80160000
C      -44.86360000     -31.92040000     -72.03740000
H      -45.56100000     -32.55600000     -71.50530000
H      -44.06380000     -31.77120000     -71.29540000
C      -44.24220000     -32.69950000     -73.28200000
C      -44.15380000     -32.24220000     -74.57790000
C      -43.57290000     -33.94020000     -73.09180000
H      -44.61220000     -31.38740000     -75.03040000
C      -43.03710000     -34.39480000     -74.28510000
C      -43.44330000     -34.86630000     -71.98590000
C      -42.86570000     -36.05970000     -72.46210000
S      -43.28780000     -33.35150000     -75.61600000
S      -42.39120000     -36.07030000     -74.13670000
H      -42.86180000     -36.95320000     -71.89300000
