40
Properties=species:S:1:pos:R:3 #=T CELL(abcABC):=T 1.889726e+02=T 90.00000=T Traj:=T positionsangstrom=T Step:=T 0=T Bead:=T pbc="F F F"
C      -47.35160000     -33.35080000     -67.23770000
C      -47.64320000     -33.96260000     -68.45600000
C      -47.79210000     -33.25460000     -69.64330000
C      -47.79230000     -31.84300000     -69.55040000
C      -47.61700000     -31.25870000     -68.28410000
C      -47.40120000     -31.96050000     -67.10860000
H      -47.25300000     -33.96610000     -66.35920000
H      -47.74360000     -33.68340000     -70.63520000
H      -47.63170000     -30.17250000     -68.14720000
H      -47.31150000     -31.40170000     -66.13820000
C      -47.86190000     -30.94290000     -70.79300000
H      -48.80490000     -30.48520000     -70.96750000
H      -47.80470000     -31.60210000     -71.68180000
C      -47.51900000     -35.42390000     -68.47180000
H      -47.78450000     -35.95270000     -67.58140000
H      -47.98730000     -35.84840000     -69.34570000
S      -46.39870000     -29.74150000     -70.77940000
S      -45.64990000     -35.85920000     -68.60840000
C      -45.39360000     -30.40980000     -72.14200000
H      -46.00110000     -30.34470000     -73.01610000
H      -44.68110000     -29.59560000     -72.33250000
C      -45.33700000     -35.43550000     -70.36430000
H      -46.05330000     -34.65890000     -70.68040000
H      -45.57610000     -36.22880000     -71.03020000
C      -43.93380000     -35.01360000     -70.63400000
H      -43.79140000     -34.02060000     -70.12730000
H      -43.16300000     -35.64340000     -70.16310000
C      -44.71030000     -31.83130000     -71.77600000
H      -45.39420000     -32.45890000     -71.09420000
H      -43.76780000     -31.59000000     -71.23780000
C      -44.30050000     -32.54140000     -73.01850000
C      -44.21380000     -31.98940000     -74.23980000
C      -43.74320000     -33.89990000     -73.01810000
H      -44.37880000     -31.00530000     -74.54760000
C      -43.32060000     -34.30830000     -74.27370000
C      -43.48660000     -34.99600000     -72.10400000
C      -42.96630000     -36.09810000     -72.66560000
S      -43.55210000     -33.10410000     -75.53050000
S      -42.67140000     -35.86610000     -74.38110000
H      -42.77060000     -36.98920000     -72.15090000
