40
Properties=species:S:1:pos:R:3 #=T CELL(abcABC):=T 1.889726e+02=T 90.00000=T Traj:=T positionsangstrom=T Step:=T 0=T Bead:=T pbc="F F F"
C      -47.81430000     -33.24330000     -67.28440000
C      -47.70290000     -33.61990000     -68.66090000
C      -47.71570000     -32.61060000     -69.66810000
C      -47.68280000     -31.32500000     -69.23830000
C      -47.66160000     -30.92210000     -67.88090000
C      -47.77670000     -31.90120000     -66.88890000
H      -47.77460000     -34.01040000     -66.56490000
H      -47.69770000     -32.73130000     -70.76090000
H      -47.56910000     -29.90800000     -67.67860000
H      -47.69380000     -31.63970000     -65.82030000
C      -47.60040000     -30.13190000     -70.22450000
H      -48.13050000     -29.29790000     -69.74900000
H      -48.17090000     -30.50240000     -71.18090000
C      -47.77230000     -35.09010000     -69.04080000
H      -48.47770000     -35.78610000     -68.58020000
H      -47.91720000     -35.14420000     -70.13330000
S      -45.93220000     -29.64830000     -70.79070000
S      -46.14310000     -35.82510000     -68.77350000
C      -45.47860000     -30.74150000     -72.23030000
H      -46.31990000     -30.72890000     -72.97640000
H      -44.62760000     -30.26760000     -72.70520000
C      -45.48800000     -35.58680000     -70.49460000
H      -46.16310000     -34.81180000     -71.04950000
H      -45.58940000     -36.53080000     -71.11330000
C      -44.01700000     -35.36490000     -70.68570000
H      -43.72180000     -34.43940000     -70.19070000
H      -43.54600000     -36.21010000     -70.15180000
C      -45.12150000     -32.21250000     -71.92610000
H      -46.13950000     -32.62780000     -71.69150000
H      -44.45010000     -32.29960000     -71.03100000
C      -44.45420000     -32.91990000     -73.07970000
C      -44.21860000     -32.27070000     -74.26850000
C      -43.80890000     -34.22230000     -73.07410000
H      -44.47780000     -31.25640000     -74.61980000
C      -43.15630000     -34.51420000     -74.28130000
C      -43.53740000     -35.24040000     -72.15910000
C      -42.84520000     -36.34650000     -72.65090000
S      -43.30010000     -33.19960000     -75.44260000
S      -42.25090000     -36.00370000     -74.28470000
H      -42.48040000     -37.14920000     -72.00700000
