40
Properties=species:S:1:pos:R:3 #=T CELL(abcABC):=T 1.889726e+02=T 90.00000=T Traj:=T positionsangstrom=T Step:=T 0=T Bead:=T pbc="F F F"
C      -44.14390000     -29.85770000     -70.06860000
C      -43.90990000     -30.97960000     -69.25960000
C      -45.01330000     -31.66610000     -68.77920000
C      -46.32730000     -31.17070000     -68.95360000
C      -46.46520000     -30.00360000     -69.61160000
C      -45.38670000     -29.29100000     -70.09740000
H      -43.33740000     -29.30000000     -70.48430000
H      -44.92300000     -32.71940000     -68.31370000
H      -47.52230000     -29.58000000     -69.61680000
H      -45.47120000     -28.33240000     -70.61600000
C      -47.52620000     -32.00630000     -68.50430000
H      -48.42170000     -31.54800000     -68.88160000
H      -47.60980000     -32.07030000     -67.43750000
C      -42.48270000     -31.54240000     -69.09510000
H      -41.84090000     -31.21820000     -69.91860000
H      -42.00600000     -31.19440000     -68.17240000
S      -47.57500000     -33.79740000     -69.11400000
S      -42.35600000     -33.32720000     -68.85010000
C      -48.06670000     -33.41340000     -70.84730000
H      -48.52480000     -34.38690000     -71.23850000
H      -48.94690000     -32.73010000     -70.73620000
C      -42.52790000     -34.12360000     -70.49130000
H      -41.93540000     -35.04200000     -70.47900000
H      -41.93890000     -33.45650000     -71.14290000
C      -43.98770000     -34.26330000     -70.94570000
H      -44.50950000     -34.89360000     -70.26830000
H      -44.51970000     -33.24890000     -70.85640000
C      -47.08760000     -32.76120000     -71.81830000
H      -46.28700000     -32.33590000     -71.28100000
H      -47.67470000     -31.94840000     -72.25380000
C      -46.62560000     -33.66940000     -72.94980000
C      -47.44230000     -33.80530000     -74.03870000
C      -45.47920000     -34.51240000     -73.03260000
H      -48.48690000     -33.40490000     -74.30410000
C      -45.54420000     -35.26250000     -74.25060000
C      -44.26700000     -34.86930000     -72.34500000
C      -43.49690000     -35.89220000     -72.91930000
S      -46.88980000     -34.93430000     -75.28610000
S      -44.28490000     -36.41960000     -74.41930000
H      -42.48760000     -36.29920000     -72.71630000
