40
Properties=species:S:1:pos:R:3 #=T CELL(abcABC):=T 1.889726e+02=T 90.00000=T Traj:=T positionsangstrom=T Step:=T 0=T Bead:=T pbc="F F F"
C      -45.71340000     -34.45300000     -74.19510000
C      -46.90530000     -33.78420000     -73.77380000
C      -47.55270000     -34.20030000     -72.61190000
C      -47.17080000     -35.32310000     -71.86970000
C      -45.99270000     -35.96730000     -72.32530000
C      -45.30660000     -35.60100000     -73.48100000
H      -45.12610000     -34.24100000     -75.08660000
H      -48.45800000     -33.65810000     -72.36960000
H      -45.60650000     -36.81270000     -71.70900000
H      -44.49620000     -36.22870000     -73.77790000
C      -47.92510000     -35.65390000     -70.61170000
H      -47.84080000     -36.75550000     -70.59170000
H      -49.00440000     -35.34750000     -70.51170000
C      -47.27710000     -32.45220000     -74.37640000
H      -47.12760000     -32.46390000     -75.46270000
H      -48.27610000     -32.07460000     -74.19720000
S      -47.21000000     -35.24900000     -68.89260000
S      -46.10400000     -31.07450000     -73.83610000
C      -47.22260000     -33.45700000     -68.83580000
H      -47.54040000     -33.14620000     -69.85700000
H      -48.04960000     -33.20040000     -68.19560000
C      -46.61090000     -30.92300000     -72.06860000
H      -47.20970000     -31.90480000     -71.90010000
H      -47.40770000     -30.17730000     -72.01270000
C      -45.46690000     -30.60440000     -71.22600000
H      -45.12050000     -29.68700000     -71.55250000
H      -45.82150000     -30.42130000     -70.21080000
C      -45.97550000     -32.67840000     -68.36270000
H      -45.74350000     -32.92430000     -67.35040000
H      -46.15170000     -31.57770000     -68.43410000
C      -44.73810000     -33.09960000     -69.13330000
C      -44.05680000     -34.25820000     -68.63450000
C      -44.06070000     -32.54890000     -70.27960000
H      -44.16810000     -34.81820000     -67.73220000
C      -42.88970000     -33.21400000     -70.59100000
C      -44.30190000     -31.50590000     -71.21420000
C      -43.32660000     -31.54130000     -72.22580000
S      -42.58420000     -34.57320000     -69.50090000
S      -42.06790000     -32.62750000     -72.03340000
H      -43.18040000     -30.79570000     -73.09270000
