40
Properties=species:S:1:pos:R:3 #=T CELL(abcABC):=T 1.889726e+02=T 90.00000=T Traj:=T positionsangstrom=T Step:=T 0=T Bead:=T pbc="F F F"
C      -46.23430000     -34.09860000     -73.72340000
C      -47.39490000     -33.43680000     -73.26360000
C      -48.03110000     -33.89020000     -72.12740000
C      -47.54910000     -35.05140000     -71.47820000
C      -46.43190000     -35.70460000     -71.95340000
C      -45.78850000     -35.26580000     -73.09940000
H      -45.61870000     -33.53390000     -74.47250000
H      -48.77230000     -33.25510000     -71.64350000
H      -46.05080000     -36.60770000     -71.42510000
H      -44.87920000     -35.70480000     -73.53960000
C      -48.07090000     -35.62430000     -70.17930000
H      -47.99790000     -36.70840000     -70.10190000
H      -49.11620000     -35.36490000     -70.08570000
C      -47.72890000     -32.08290000     -73.88240000
H      -47.74490000     -32.23390000     -74.99260000
H      -48.72770000     -31.69310000     -73.62930000
S      -47.29350000     -35.04010000     -68.54590000
S      -46.43720000     -30.84180000     -73.51780000
C      -46.83330000     -33.24210000     -68.91170000
H      -46.94090000     -33.06330000     -70.04390000
H      -47.50610000     -32.61690000     -68.31820000
C      -46.37580000     -31.04460000     -71.74110000
H      -46.45780000     -32.10750000     -71.65240000
H      -47.13070000     -30.52990000     -71.10640000
C      -44.98030000     -30.54280000     -71.30770000
H      -44.74290000     -29.64730000     -71.84980000
H      -44.93600000     -30.24590000     -70.21840000
C      -45.42110000     -32.79040000     -68.61400000
H      -45.38100000     -33.02710000     -67.56020000
H      -45.44680000     -31.71530000     -68.68020000
C      -44.39870000     -33.41010000     -69.44850000
C      -43.77640000     -34.59110000     -69.10970000
C      -43.75370000     -32.78790000     -70.67400000
H      -44.02610000     -35.09960000     -68.20980000
C      -42.56470000     -33.54280000     -71.02720000
C      -43.93910000     -31.66010000     -71.54620000
C      -43.06110000     -31.70540000     -72.60300000
S      -42.42520000     -34.98880000     -70.10020000
S      -41.91930000     -33.01510000     -72.61560000
H      -43.28610000     -31.03240000     -73.50160000
