40
Properties=species:S:1:pos:R:3 #=T CELL(abcABC):=T 1.889726e+02=T 90.00000=T Traj:=T positionsangstrom=T Step:=T 0=T Bead:=T pbc="F F F"
C      -44.83470000     -36.16400000     -69.28090000
C      -45.79220000     -35.37780000     -68.62150000
C      -47.03100000     -35.19500000     -69.27110000
C      -47.42750000     -35.87970000     -70.44770000
C      -46.52450000     -36.87190000     -70.83650000
C      -45.25450000     -36.99980000     -70.32880000
H      -43.83760000     -36.25260000     -68.84780000
H      -47.76320000     -34.42950000     -68.76290000
H      -46.73680000     -37.53320000     -71.69060000
H      -44.52230000     -37.55220000     -70.89380000
C      -48.66860000     -35.59370000     -71.18960000
H      -49.55380000     -36.05910000     -70.68690000
H      -48.64010000     -36.10550000     -72.15840000
C      -45.55320000     -34.56040000     -67.39510000
H      -46.37900000     -34.44950000     -66.67820000
H      -44.63680000     -35.02900000     -66.87490000
S      -49.03890000     -33.79800000     -71.52150000
S      -45.27080000     -32.71980000     -67.73760000
C      -47.68700000     -33.15290000     -72.63210000
H      -47.89050000     -33.48590000     -73.65290000
H      -47.77350000     -32.03770000     -72.59630000
C      -44.19700000     -32.66110000     -69.25920000
H      -44.21530000     -33.50400000     -69.89940000
H      -43.15450000     -32.51680000     -68.87030000
C      -44.69250000     -31.39430000     -70.08550000
H      -45.75840000     -31.47540000     -70.13410000
H      -44.46160000     -30.47610000     -69.47820000
C      -46.31080000     -33.61790000     -72.21170000
H      -46.29960000     -34.66220000     -72.37150000
H      -46.25370000     -33.32120000     -71.14390000
C      -45.18690000     -33.00310000     -73.05830000
C      -44.98570000     -33.40360000     -74.35550000
C      -44.24580000     -32.01810000     -72.69030000
H      -45.67260000     -34.11170000     -74.86690000
C      -43.32900000     -31.70810000     -73.68240000
C      -43.94250000     -31.26030000     -71.42690000
C      -42.76300000     -30.58800000     -71.58690000
S      -43.52750000     -32.72570000     -75.11440000
S      -41.97650000     -30.68870000     -73.11300000
H      -42.46490000     -29.98290000     -70.73930000
