40
Properties=species:S:1:pos:R:3 #=T CELL(abcABC):=T 1.889726e+02=T 90.00000=T Traj:=T positionsangstrom=T Step:=T 0=T Bead:=T pbc="F F F"
C      -45.39180000     -34.57200000     -67.51090000
C      -45.02650000     -35.38260000     -68.55590000
C      -46.03770000     -35.77580000     -69.48260000
C      -47.30280000     -35.26770000     -69.34840000
C      -47.61370000     -34.42770000     -68.26130000
C      -46.60790000     -33.94570000     -67.44950000
H      -44.61890000     -34.44280000     -66.74150000
H      -45.76580000     -36.46550000     -70.29610000
H      -48.65100000     -34.05440000     -68.16920000
H      -46.86640000     -33.37390000     -66.50030000
C      -48.33230000     -35.78530000     -70.26740000
H      -49.17760000     -36.20770000     -69.79420000
H      -47.90190000     -36.50100000     -71.00060000
C      -43.54680000     -35.95380000     -68.51910000
H      -43.06540000     -35.40410000     -67.73710000
H      -43.54430000     -37.03630000     -68.24180000
S      -49.16840000     -34.41080000     -71.32180000
S      -42.44180000     -35.80850000     -70.02540000
C      -47.65300000     -33.76940000     -72.29030000
H      -46.91800000     -34.59860000     -72.43390000
H      -48.12100000     -33.39290000     -73.26580000
C      -42.65950000     -34.11510000     -70.66710000
H      -41.69870000     -33.79490000     -71.06770000
H      -42.83150000     -33.46930000     -69.84070000
C      -43.72140000     -34.07040000     -71.76060000
H      -43.55610000     -34.87190000     -72.44450000
H      -44.72200000     -34.14880000     -71.38130000
C      -46.89260000     -32.60060000     -71.48460000
H      -46.26200000     -33.05030000     -70.76170000
H      -47.61710000     -32.06800000     -71.01300000
C      -46.14190000     -31.73950000     -72.45130000
C      -46.74630000     -30.71100000     -73.20000000
C      -44.76640000     -31.83310000     -72.75750000
H      -47.79070000     -30.43060000     -72.99290000
C      -44.28130000     -30.87220000     -73.62480000
C      -43.68000000     -32.82410000     -72.53200000
C      -42.54430000     -32.56330000     -73.19040000
S      -45.60630000     -29.77440000     -74.03980000
S      -42.56510000     -31.03880000     -74.08070000
H      -41.73310000     -33.28250000     -73.28530000
