40
Properties=species:S:1:pos:R:3 #=T CELL(abcABC):=T 1.889726e+02=T 90.00000=T Traj:=T positionsangstrom=T Step:=T 0=T Bead:=T pbc="F F F"
C      -44.83220000     -36.15280000     -69.27770000
C      -45.75950000     -35.29290000     -68.64060000
C      -47.01290000     -35.28080000     -69.22910000
C      -47.34950000     -35.95960000     -70.40300000
C      -46.44550000     -36.89550000     -70.99800000
C      -45.20890000     -36.97220000     -70.34710000
H      -43.81160000     -36.21370000     -68.90210000
H      -47.84030000     -34.68720000     -68.91580000
H      -46.67940000     -37.50070000     -71.86570000
H      -44.50450000     -37.72070000     -70.59490000
C      -48.69010000     -35.66250000     -71.02640000
H      -49.50070000     -35.75920000     -70.28720000
H      -48.87590000     -36.37640000     -71.89020000
C      -45.42470000     -34.49660000     -67.39880000
H      -46.32680000     -34.78680000     -66.75120000
H      -44.50410000     -34.76880000     -66.84470000
S      -48.97740000     -33.88880000     -71.62680000
S      -45.40070000     -32.67230000     -67.69330000
C      -47.56440000     -33.76550000     -72.80360000
H      -47.52950000     -34.56600000     -73.56600000
H      -47.78650000     -32.89200000     -73.43200000
C      -44.53610000     -32.56130000     -69.30220000
H      -44.85690000     -33.53400000     -69.89100000
H      -43.45290000     -32.63980000     -69.19430000
C      -44.85700000     -31.27670000     -70.07540000
H      -45.95230000     -31.29520000     -70.27230000
H      -44.63340000     -30.38170000     -69.55170000
C      -46.23540000     -33.48110000     -72.19720000
H      -45.99830000     -34.34920000     -71.56610000
H      -46.43030000     -32.81390000     -71.39140000
C      -45.25480000     -32.90770000     -73.12450000
C      -44.91500000     -33.34440000     -74.40970000
C      -44.26700000     -31.96420000     -72.62180000
H      -45.40110000     -34.12110000     -74.84640000
C      -43.27430000     -31.72610000     -73.62230000
C      -44.03620000     -31.24070000     -71.42680000
C      -42.87940000     -30.45270000     -71.53010000
S      -43.41250000     -32.66980000     -75.07670000
S      -41.96300000     -30.66590000     -73.05800000
H      -42.45280000     -29.90320000     -70.70340000
