40
Properties=species:S:1:pos:R:3 #=T CELL(abcABC):=T 1.889726e+02=T 90.00000=T Traj:=T positionsangstrom=T Step:=T 0=T Bead:=T pbc="F F F"
C      -46.00500000     -34.08020000     -73.67700000
C      -47.08570000     -33.34540000     -73.14450000
C      -47.74690000     -33.90350000     -72.04070000
C      -47.23980000     -35.11220000     -71.44220000
C      -46.29290000     -35.86440000     -72.12820000
C      -45.60860000     -35.29630000     -73.19300000
H      -45.47490000     -33.74940000     -74.57290000
H      -48.54020000     -33.39850000     -71.52740000
H      -46.05920000     -36.85100000     -71.74800000
H      -44.84520000     -35.80470000     -73.68070000
C      -47.92530000     -35.51360000     -70.17650000
H      -48.06200000     -36.65660000     -70.12450000
H      -48.93640000     -35.11770000     -70.30940000
C      -47.54660000     -32.10160000     -73.81110000
H      -47.45700000     -32.37840000     -74.89270000
H      -48.55970000     -31.76440000     -73.57120000
S      -46.99590000     -35.06890000     -68.70000000
S      -46.32090000     -30.77840000     -73.40040000
C      -46.82410000     -33.22380000     -68.83410000
H      -47.10640000     -32.95690000     -69.82030000
H      -47.54710000     -32.71780000     -68.14190000
C      -46.43000000     -30.79290000     -71.52220000
H      -46.72570000     -31.85260000     -71.23790000
H      -47.03260000     -29.98810000     -71.16530000
C      -45.07000000     -30.54100000     -70.94050000
H      -44.57800000     -29.59180000     -71.31120000
H      -45.17440000     -30.48480000     -69.82420000
C      -45.40070000     -32.73680000     -68.50940000
H      -45.17510000     -33.01080000     -67.45450000
H      -45.25670000     -31.63830000     -68.59450000
C      -44.33210000     -33.36130000     -69.33180000
C      -43.74590000     -34.58970000     -69.12490000
C      -43.86780000     -32.79590000     -70.59920000
H      -43.82240000     -35.02410000     -68.15410000
C      -42.97140000     -33.62640000     -71.22850000
C      -44.11700000     -31.64830000     -71.34890000
C      -43.40390000     -31.60240000     -72.52060000
S      -42.70530000     -35.14640000     -70.42450000
S      -42.35850000     -33.03320000     -72.72450000
H      -43.27200000     -30.71720000     -73.26450000
