40
Properties=species:S:1:pos:R:3 #=T CELL(abcABC):=T 1.889726e+02=T 90.00000=T Traj:=T positionsangstrom=T Step:=T 0=T Bead:=T pbc="F F F"
C      -45.65380000     -34.09220000     -73.54510000
C      -46.85220000     -33.39370000     -73.11360000
C      -47.60320000     -33.91930000     -72.04770000
C      -47.27230000     -35.10750000     -71.43500000
C      -46.14570000     -35.74710000     -71.87050000
C      -45.34220000     -35.28450000     -72.91780000
H      -45.01820000     -33.65680000     -74.31020000
H      -48.49100000     -33.29980000     -71.72880000
H      -45.87250000     -36.67360000     -71.32300000
H      -44.55340000     -35.80260000     -73.32260000
C      -48.06550000     -35.64560000     -70.14580000
H      -48.04270000     -36.73840000     -70.11360000
H      -49.11540000     -35.24060000     -69.97880000
C      -47.22130000     -32.12390000     -73.87960000
H      -46.96360000     -32.08630000     -74.95470000
H      -48.32030000     -31.94210000     -73.92720000
S      -47.16640000     -35.19670000     -68.59010000
S      -46.49470000     -30.44450000     -73.32290000
C      -46.85530000     -33.38730000     -68.81780000
H      -46.91040000     -33.16630000     -69.93840000
H      -47.63340000     -32.80120000     -68.30550000
C      -46.51620000     -30.69070000     -71.50250000
H      -46.89250000     -31.67290000     -71.24530000
H      -47.23790000     -30.05030000     -71.08020000
C      -45.09020000     -30.57050000     -70.94140000
H      -44.72620000     -29.63190000     -71.30090000
H      -45.18830000     -30.44160000     -69.88370000
C      -45.34380000     -32.84280000     -68.47440000
H      -45.18200000     -32.99970000     -67.37670000
H      -45.45080000     -31.75990000     -68.46470000
C      -44.31890000     -33.39800000     -69.42620000
C      -43.86360000     -34.70780000     -69.24390000
C      -43.93240000     -32.89890000     -70.70890000
H      -44.05150000     -35.41000000     -68.44270000
C      -43.02050000     -33.69480000     -71.34330000
C      -44.07620000     -31.62910000     -71.38690000
C      -43.34000000     -31.53210000     -72.52400000
S      -42.70970000     -35.16490000     -70.53910000
S      -42.44880000     -33.01130000     -72.91100000
H      -43.12410000     -30.67760000     -73.04270000
