40
Properties=species:S:1:pos:R:3 #=T CELL(abcABC):=T 1.889726e+02=T 90.00000=T Traj:=T positionsangstrom=T Step:=T 0=T Bead:=T pbc="F F F"
C      -45.92380000     -34.12770000     -73.71520000
C      -47.02560000     -33.42980000     -73.21360000
C      -47.62470000     -33.98890000     -72.06180000
C      -47.18470000     -35.21680000     -71.47590000
C      -46.11540000     -35.92130000     -72.07900000
C      -45.50930000     -35.39350000     -73.25310000
H      -45.28260000     -33.84730000     -74.53340000
H      -48.59270000     -33.55090000     -71.73740000
H      -45.88350000     -36.93020000     -71.74060000
H      -44.72020000     -35.87500000     -73.73270000
C      -47.80680000     -35.63660000     -70.23660000
H      -47.86360000     -36.68080000     -70.01780000
H      -48.85810000     -35.25940000     -70.22380000
C      -47.49940000     -32.13470000     -73.84510000
H      -47.55340000     -32.25300000     -74.92160000
H      -48.48140000     -31.86900000     -73.43600000
S      -46.90810000     -35.04780000     -68.65080000
S      -46.42950000     -30.59800000     -73.47750000
C      -46.73550000     -33.23980000     -68.78440000
H      -46.98120000     -33.16440000     -69.86250000
H      -47.39010000     -32.64870000     -68.13240000
C      -46.42580000     -30.43940000     -71.62250000
H      -47.01980000     -31.24090000     -71.22420000
H      -46.96960000     -29.53440000     -71.31770000
C      -44.99190000     -30.41110000     -70.85860000
H      -44.58950000     -29.40810000     -71.06830000
H      -45.22430000     -30.62370000     -69.81550000
C      -45.25020000     -32.87730000     -68.29480000
H      -45.24630000     -33.28400000     -67.30210000
H      -45.22480000     -31.83340000     -68.19860000
C      -44.28450000     -33.37030000     -69.25560000
C      -43.86600000     -34.67680000     -69.15540000
C      -43.90710000     -32.80190000     -70.58620000
H      -44.03510000     -35.39190000     -68.31830000
C      -43.05410000     -33.69730000     -71.24290000
C      -44.02780000     -31.53920000     -71.22890000
C      -43.42090000     -31.51980000     -72.45130000
S      -42.86790000     -35.23780000     -70.48060000
S      -42.55360000     -33.02690000     -72.74210000
H      -43.11020000     -30.60170000     -73.10730000
