40
Properties=species:S:1:pos:R:3 #=T CELL(abcABC):=T 1.889726e+02=T 90.00000=T Traj:=T positionsangstrom=T Step:=T 0=T Bead:=T pbc="F F F"
C      -46.17380000     -34.05050000     -73.55990000
C      -47.39800000     -33.45030000     -73.22590000
C      -48.04810000     -33.77950000     -72.03710000
C      -47.48610000     -34.80100000     -71.20990000
C      -46.27150000     -35.44440000     -71.57690000
C      -45.64900000     -35.08640000     -72.80310000
H      -45.66300000     -33.81670000     -74.47300000
H      -49.00650000     -33.40510000     -71.70360000
H      -45.78610000     -36.29470000     -71.04260000
H      -44.76050000     -35.66380000     -73.14260000
C      -48.10070000     -35.10600000     -69.88350000
H      -48.31570000     -36.20530000     -69.74130000
H      -49.12520000     -34.61240000     -69.81310000
C      -47.78110000     -32.20160000     -73.94190000
H      -47.90960000     -32.28360000     -75.10640000
H      -48.75400000     -31.71500000     -73.60890000
S      -46.94060000     -34.62330000     -68.54130000
S      -46.35760000     -30.88160000     -73.73180000
C      -46.49200000     -32.76430000     -68.78920000
H      -46.72560000     -32.41090000     -69.79750000
H      -47.14200000     -32.20710000     -68.05000000
C      -46.20290000     -30.95220000     -71.87510000
H      -46.57070000     -31.98900000     -71.54650000
H      -46.86330000     -30.19440000     -71.33210000
C      -44.76830000     -30.64770000     -71.35350000
H      -44.28830000     -29.82150000     -71.92680000
H      -44.82290000     -30.52000000     -70.26670000
C      -45.03690000     -32.49540000     -68.50210000
H      -44.84330000     -32.65430000     -67.45550000
H      -45.02400000     -31.39710000     -68.62000000
C      -44.08590000     -33.25240000     -69.30720000
C      -43.64360000     -34.53080000     -68.92450000
C      -43.72460000     -32.93680000     -70.69390000
H      -43.61890000     -35.04720000     -67.92020000
C      -42.96730000     -33.93760000     -71.24450000
C      -43.90350000     -31.80410000     -71.57980000
C      -43.35430000     -31.99740000     -72.79430000
S      -42.80300000     -35.34170000     -70.23330000
S      -42.51370000     -33.58720000     -72.85560000
H      -43.21910000     -31.21330000     -73.49410000
