40
Properties=species:S:1:pos:R:3 #=T CELL(abcABC):=T 1.889726e+02=T 90.00000=T Traj:=T positionsangstrom=T Step:=T 0=T Bead:=T pbc="F F F"
C      -48.95940000     -32.11700000     -70.09450000
C      -48.61390000     -32.56750000     -71.39070000
C      -48.20010000     -33.90800000     -71.45320000
C      -48.28240000     -34.73900000     -70.31450000
C      -48.55720000     -34.23500000     -69.04090000
C      -48.83590000     -32.86390000     -68.94940000
H      -49.32400000     -31.07580000     -69.96530000
H      -48.11000000     -34.31940000     -72.42770000
H      -48.62870000     -34.82200000     -68.16000000
H      -48.89770000     -32.42130000     -67.92220000
C      -47.88770000     -36.19310000     -70.57050000
H      -47.62290000     -36.29780000     -71.61900000
H      -48.76110000     -36.87080000     -70.37360000
C      -48.76890000     -31.69920000     -72.53790000
H      -48.72540000     -32.25440000     -73.53910000
H      -49.84710000     -31.44160000     -72.55130000
S      -46.60710000     -36.61320000     -69.27020000
S      -47.55090000     -30.26050000     -72.53280000
C      -45.09520000     -36.27530000     -70.25290000
H      -44.29230000     -36.69760000     -69.63790000
H      -45.12760000     -36.88190000     -71.12990000
C      -45.91650000     -30.99870000     -73.12690000
H      -45.28860000     -30.00090000     -73.12390000
H      -45.89390000     -31.36180000     -74.14800000
C      -45.28240000     -31.88440000     -72.02690000
H      -45.49880000     -31.42550000     -71.02170000
H      -45.82020000     -32.85830000     -71.95600000
C      -44.90320000     -34.85180000     -70.64410000
H      -45.08820000     -34.27520000     -69.72220000
H      -45.75330000     -34.52970000     -71.27900000
C      -43.54070000     -34.51450000     -71.17590000
C      -42.40050000     -35.28400000     -71.03350000
C      -43.09460000     -33.26160000     -71.83940000
H      -42.51240000     -36.33300000     -70.60030000
C      -41.75580000     -33.20340000     -72.13490000
C      -43.79810000     -31.95060000     -72.11870000
C      -42.91620000     -31.02640000     -72.55770000
S      -40.92500000     -34.72450000     -71.72700000
S      -41.19950000     -31.57300000     -72.50710000
H      -43.27400000     -29.92960000     -72.69160000
