40
Properties=species:S:1:pos:R:3 #=T CELL(abcABC):=T 1.889726e+02=T 90.00000=T Traj:=T positionsangstrom=T Step:=T 0=T Bead:=T pbc="F F F"
C      -46.28790000     -34.29510000     -73.62550000
C      -47.26850000     -33.41770000     -73.15740000
C      -47.81340000     -33.59320000     -71.86760000
C      -47.43540000     -34.70400000     -71.06610000
C      -46.42900000     -35.59340000     -71.52410000
C      -45.92310000     -35.32950000     -72.78570000
H      -45.81410000     -34.06090000     -74.59410000
H      -48.61190000     -32.95920000     -71.34980000
H      -46.15610000     -36.57550000     -71.14510000
H      -45.17090000     -36.05250000     -73.13450000
C      -48.06800000     -35.00880000     -69.75790000
H      -48.20710000     -36.10760000     -69.66770000
H      -48.99660000     -34.47890000     -69.59310000
C      -47.63630000     -32.16680000     -73.89550000
H      -47.86010000     -32.48580000     -74.93250000
H      -48.60800000     -31.77320000     -73.43640000
S      -47.08410000     -34.64120000     -68.29180000
S      -46.52470000     -30.69880000     -73.81670000
C      -46.58230000     -32.84200000     -68.30410000
H      -47.16430000     -32.47730000     -69.16760000
H      -47.07110000     -32.42030000     -67.39440000
C      -46.18750000     -30.58440000     -72.02290000
H      -46.66300000     -31.39100000     -71.48600000
H      -46.51850000     -29.53300000     -71.66630000
C      -44.67240000     -30.60470000     -71.59980000
H      -44.14860000     -29.79490000     -72.13570000
H      -44.50200000     -30.30780000     -70.56170000
C      -45.05840000     -32.58730000     -68.42560000
H      -44.66740000     -32.84860000     -67.45690000
H      -45.03360000     -31.52430000     -68.61080000
C      -44.27850000     -33.39630000     -69.50050000
C      -43.74480000     -34.63460000     -69.10330000
C      -43.79450000     -33.02060000     -70.83580000
H      -43.92960000     -35.06400000     -68.12990000
C      -42.92110000     -33.97510000     -71.38180000
C      -43.97460000     -31.91370000     -71.78920000
C      -43.12120000     -32.03930000     -72.84230000
S      -42.70960000     -35.36950000     -70.28220000
S      -42.25880000     -33.55500000     -72.92860000
H      -43.21480000     -31.40840000     -73.75530000
