40
Properties=species:S:1:pos:R:3 #=T CELL(abcABC):=T 1.889726e+02=T 90.00000=T Traj:=T positionsangstrom=T Step:=T 0=T Bead:=T pbc="F F F"
C      -45.02790000     -34.27400000     -67.64200000
C      -44.76610000     -35.45790000     -68.37120000
C      -45.81540000     -35.96490000     -69.18760000
C      -47.04560000     -35.27550000     -69.35000000
C      -47.20620000     -34.07800000     -68.63610000
C      -46.27230000     -33.63750000     -67.68010000
H      -44.17540000     -34.00760000     -67.03710000
H      -45.64880000     -36.81620000     -69.79710000
H      -48.13680000     -33.48130000     -68.78890000
H      -46.47260000     -32.73410000     -67.17310000
C      -48.12860000     -35.82760000     -70.27180000
H      -48.98610000     -36.17350000     -69.59940000
H      -47.73780000     -36.63990000     -70.89690000
C      -43.39540000     -36.02450000     -68.39010000
H      -42.83250000     -35.58120000     -67.56860000
H      -43.39250000     -37.07760000     -68.23830000
S      -48.97760000     -34.61070000     -71.28250000
S      -42.53080000     -35.73770000     -70.00550000
C      -47.65850000     -33.84350000     -72.19830000
H      -46.82060000     -34.52420000     -72.38400000
H      -47.99080000     -33.43530000     -73.11890000
C      -42.85170000     -34.03160000     -70.51270000
H      -41.90870000     -33.78880000     -70.90690000
H      -43.13540000     -33.42200000     -69.65690000
C      -43.93470000     -34.08060000     -71.65120000
H      -43.70450000     -34.94690000     -72.27990000
H      -44.89490000     -34.25090000     -71.22230000
C      -47.06580000     -32.57980000     -71.49100000
H      -46.36510000     -32.84610000     -70.71680000
H      -47.90610000     -32.02610000     -71.04940000
C      -46.30230000     -31.69660000     -72.42710000
C      -46.85070000     -30.56880000     -73.07680000
C      -44.91270000     -31.83200000     -72.66660000
H      -47.92860000     -30.24380000     -73.02940000
C      -44.44430000     -30.86930000     -73.59190000
C      -43.88080000     -32.85650000     -72.48410000
C      -42.77140000     -32.65670000     -73.29840000
S      -45.66000000     -29.76220000     -74.11790000
S      -42.87130000     -31.20630000     -74.22940000
H      -41.93100000     -33.34270000     -73.26080000
