40
Properties=species:S:1:pos:R:3 #=T CELL(abcABC):=T 1.889726e+02=T 90.00000=T Traj:=T positionsangstrom=T Step:=T 0=T Bead:=T pbc="F F F"
C      -46.06390000     -34.22910000     -73.37310000
C      -47.20420000     -33.47080000     -72.93580000
C      -47.95260000     -34.06940000     -71.92810000
C      -47.51100000     -35.20110000     -71.21150000
C      -46.37380000     -35.92610000     -71.62550000
C      -45.68000000     -35.44380000     -72.75910000
H      -45.41180000     -33.75410000     -74.10270000
H      -48.86880000     -33.57770000     -71.69220000
H      -45.89440000     -36.62310000     -70.94190000
H      -44.76350000     -35.93070000     -73.15300000
C      -48.22360000     -35.39830000     -69.89340000
H      -48.42410000     -36.38230000     -69.42170000
H      -49.10560000     -34.77210000     -69.79550000
C      -47.71200000     -32.19020000     -73.57140000
H      -47.88120000     -32.39990000     -74.73410000
H      -48.77580000     -31.90820000     -73.12220000
S      -47.13840000     -34.76520000     -68.40420000
S      -46.47180000     -30.84080000     -73.45140000
C      -46.66390000     -32.93310000     -68.86380000
H      -46.98980000     -32.65210000     -69.89920000
H      -47.30420000     -32.29170000     -68.20590000
C      -46.17510000     -30.58500000     -71.59770000
H      -46.49820000     -31.46680000     -71.01600000
H      -46.82120000     -29.70440000     -71.33570000
C      -44.74560000     -30.38850000     -71.24380000
H      -44.29390000     -29.51820000     -71.76570000
H      -44.68270000     -30.02270000     -70.16650000
C      -45.17070000     -32.60650000     -68.67200000
H      -44.81190000     -32.71350000     -67.65290000
H      -45.09210000     -31.52580000     -68.90630000
C      -44.18370000     -33.34100000     -69.57390000
C      -43.79570000     -34.61690000     -69.32410000
C      -43.61320000     -32.79790000     -70.81100000
H      -44.03640000     -35.13310000     -68.38740000
C      -42.78250000     -33.73500000     -71.41480000
C      -43.84140000     -31.53080000     -71.60600000
C      -43.21320000     -31.67210000     -72.79920000
S      -42.80170000     -35.33780000     -70.57940000
S      -42.25720000     -33.15570000     -72.99910000
H      -43.22090000     -31.02130000     -73.61640000
