40
Properties=species:S:1:pos:R:3 #=T CELL(abcABC):=T 1.889726e+02=T 90.00000=T Traj:=T positionsangstrom=T Step:=T 0=T Bead:=T pbc="F F F"
C      -45.98530000     -34.56400000     -73.68420000
C      -47.08840000     -33.75560000     -73.36800000
C      -47.79280000     -34.04430000     -72.21310000
C      -47.46040000     -35.16080000     -71.38390000
C      -46.33970000     -35.98170000     -71.74790000
C      -45.62010000     -35.69300000     -72.95280000
H      -45.30820000     -34.25720000     -74.49310000
H      -48.50420000     -33.30750000     -71.91490000
H      -46.11230000     -36.86670000     -71.15420000
H      -44.82810000     -36.34330000     -73.34610000
C      -48.15810000     -35.35000000     -70.10560000
H      -48.31050000     -36.35470000     -69.95190000
H      -49.17620000     -34.99490000     -70.13500000
C      -47.40740000     -32.51260000     -74.15860000
H      -47.45650000     -32.65510000     -75.23850000
H      -48.34940000     -32.09450000     -73.88650000
S      -47.19960000     -34.68330000     -68.68750000
S      -46.05320000     -31.21800000     -73.93060000
C      -47.01590000     -32.94880000     -69.26190000
H      -46.97710000     -32.86550000     -70.33800000
H      -47.87790000     -32.33100000     -68.93380000
C      -46.20900000     -30.67210000     -72.14210000
H      -46.55980000     -31.51040000     -71.62490000
H      -46.96130000     -29.87400000     -71.90110000
C      -44.83590000     -30.36910000     -71.53970000
H      -44.30530000     -29.77240000     -72.16700000
H      -44.99810000     -29.86170000     -70.54180000
C      -45.71330000     -32.23810000     -68.73210000
H      -45.78450000     -32.34050000     -67.63560000
H      -45.76250000     -31.18920000     -69.09170000
C      -44.53890000     -33.04310000     -69.29770000
C      -43.94970000     -34.08230000     -68.66510000
C      -43.89840000     -32.69080000     -70.53000000
H      -44.31330000     -34.52960000     -67.72570000
C      -43.02350000     -33.70770000     -70.88490000
C      -43.98550000     -31.65570000     -71.49970000
C      -43.09950000     -31.75650000     -72.53090000
S      -42.73200000     -34.85040000     -69.66420000
S      -42.17600000     -33.28670000     -72.41690000
H      -42.97800000     -31.11460000     -73.41500000
