40
Properties=species:S:1:pos:R:3 #=T CELL(abcABC):=T 1.889726e+02=T 90.00000=T Traj:=T positionsangstrom=T Step:=T 0=T Bead:=T pbc="F F F"
C      -48.63660000     -31.47270000     -70.64770000
C      -48.63000000     -32.49200000     -71.65390000
C      -48.47880000     -33.80100000     -71.26870000
C      -48.33330000     -34.14620000     -69.90660000
C      -48.62100000     -33.12620000     -68.96980000
C      -48.70260000     -31.80260000     -69.31920000
H      -48.60450000     -30.44600000     -71.03540000
H      -48.53320000     -34.63730000     -72.00660000
H      -48.67610000     -33.46110000     -67.88890000
H      -48.87270000     -30.97830000     -68.62400000
C      -48.13560000     -35.55710000     -69.60560000
H      -47.91840000     -35.98520000     -70.58160000
H      -49.07580000     -35.99140000     -69.22720000
C      -48.72480000     -32.14890000     -73.11120000
H      -48.34890000     -33.02680000     -73.62970000
H      -49.71810000     -31.72980000     -73.50140000
S      -46.73650000     -36.13680000     -68.62790000
S      -47.47250000     -30.79660000     -73.64110000
C      -45.18870000     -36.08320000     -69.66440000
H      -44.41700000     -36.33140000     -68.96410000
H      -45.29410000     -36.76390000     -70.47690000
C      -45.82410000     -31.58750000     -73.71080000
H      -45.20500000     -30.84070000     -74.14350000
H      -45.69720000     -32.40260000     -74.42540000
C      -45.25010000     -31.96000000     -72.30700000
H      -45.47430000     -31.23010000     -71.56010000
H      -45.80790000     -32.88110000     -72.02440000
C      -44.85810000     -34.69130000     -70.13400000
H      -44.85230000     -34.04430000     -69.23410000
H      -45.70090000     -34.31800000     -70.83530000
C      -43.52400000     -34.58070000     -70.84680000
C      -42.47110000     -35.43110000     -70.53620000
C      -43.11230000     -33.47600000     -71.69430000
H      -42.56990000     -36.38890000     -70.00410000
C      -41.80840000     -33.55510000     -71.99630000
C      -43.77390000     -32.27480000     -72.31770000
C      -42.80440000     -31.46130000     -72.85380000
S      -40.95890000     -34.90120000     -71.31440000
S      -41.11310000     -32.11570000     -72.73630000
H      -42.92810000     -30.50400000     -73.27810000
