40
Properties=species:S:1:pos:R:3 #=T CELL(abcABC):=T 1.889726e+02=T 90.00000=T Traj:=T positionsangstrom=T Step:=T 0=T Bead:=T pbc="F F F"
C      -45.69480000     -34.23170000     -73.41330000
C      -46.96470000     -33.70210000     -73.28350000
C      -47.83850000     -34.03390000     -72.23810000
C      -47.36760000     -34.98000000     -71.28140000
C      -46.11570000     -35.54200000     -71.41820000
C      -45.29430000     -35.15820000     -72.46300000
H      -45.16460000     -34.03350000     -74.35330000
H      -48.86970000     -33.62060000     -72.08090000
H      -45.65560000     -36.23190000     -70.69770000
H      -44.38930000     -35.65170000     -72.57430000
C      -48.27810000     -35.14430000     -70.04190000
H      -48.56400000     -36.20500000     -69.85770000
H      -49.14200000     -34.57270000     -70.14960000
C      -47.34460000     -32.64320000     -74.29390000
H      -47.02120000     -32.96410000     -75.24580000
H      -48.35490000     -32.32210000     -74.21590000
S      -47.34720000     -34.72850000     -68.46850000
S      -46.34120000     -31.10090000     -73.99050000
C      -47.02380000     -32.90460000     -68.59820000
H      -47.46940000     -32.56190000     -69.57810000
H      -47.65530000     -32.42620000     -67.87270000
C      -46.36920000     -30.93240000     -72.12900000
H      -46.76010000     -31.80680000     -71.64710000
H      -47.06070000     -30.16560000     -71.93880000
C      -45.00730000     -30.57630000     -71.50250000
H      -44.63260000     -29.60450000     -71.92530000
H      -45.28150000     -30.45380000     -70.44330000
C      -45.55580000     -32.55560000     -68.63290000
H      -45.11870000     -32.76210000     -67.69880000
H      -45.43270000     -31.48020000     -68.80100000
C      -44.60980000     -33.35420000     -69.55190000
C      -44.02390000     -34.46740000     -69.05810000
C      -43.95270000     -32.78800000     -70.68650000
H      -44.26690000     -35.09260000     -68.16240000
C      -42.87030000     -33.61890000     -71.07270000
C      -44.08150000     -31.73220000     -71.64590000
C      -43.09370000     -31.73380000     -72.65380000
S      -42.74190000     -35.06280000     -70.12040000
S      -41.98720000     -33.17030000     -72.48110000
H      -43.12860000     -31.05660000     -73.49680000
