40
Properties=species:S:1:pos:R:3 #=T CELL(abcABC):=T 1.889726e+02=T 90.00000=T Traj:=T positionsangstrom=T Step:=T 0=T Bead:=T pbc="F F F"
C      -48.06840000     -33.71200000     -70.13800000
C      -48.33960000     -33.26910000     -71.43150000
C      -47.85610000     -34.04900000     -72.50620000
C      -47.47750000     -35.43680000     -72.29380000
C      -47.31890000     -35.84360000     -70.97480000
C      -47.50500000     -34.95700000     -69.88440000
H      -48.39670000     -33.00380000     -69.37800000
H      -47.80510000     -33.79530000     -73.58810000
H      -46.93580000     -36.82450000     -70.73120000
H      -47.45130000     -35.27330000     -68.81840000
C      -47.09710000     -36.22230000     -73.51850000
H      -47.92320000     -36.43850000     -74.19710000
H      -46.58880000     -37.16120000     -73.26450000
C      -48.98540000     -31.99300000     -71.68710000
H      -49.74210000     -32.03200000     -72.46840000
H      -49.55830000     -31.49500000     -70.84480000
S      -45.69580000     -35.25530000     -74.40920000
S      -47.91290000     -30.70770000     -72.40890000
C      -44.72410000     -34.99820000     -72.89640000
H      -45.39190000     -34.47010000     -72.12550000
H      -44.45860000     -35.99750000     -72.52580000
C      -46.47570000     -30.53260000     -71.14860000
H      -46.89070000     -30.80930000     -70.14500000
H      -46.11630000     -29.57790000     -71.08100000
C      -45.33910000     -31.45680000     -71.62620000
H      -45.79620000     -32.25440000     -72.15050000
H      -44.72340000     -31.03550000     -72.39820000
C      -43.51820000     -34.02390000     -73.06890000
H      -44.01760000     -33.18900000     -73.61450000
H      -42.78160000     -34.47560000     -73.79900000
C      -42.91230000     -33.70460000     -71.71540000
C      -41.84880000     -34.50320000     -71.33150000
C      -43.32110000     -32.80250000     -70.63420000
H      -41.52980000     -35.36810000     -71.88920000
C      -42.52730000     -32.98250000     -69.49480000
C      -44.43860000     -31.95960000     -70.48430000
C      -44.52250000     -31.51280000     -69.24400000
S      -41.31520000     -34.23020000     -69.67840000
S      -43.28310000     -32.08010000     -68.17090000
H      -45.15190000     -30.72690000     -68.86980000
