40
Properties=species:S:1:pos:R:3 #=T CELL(abcABC):=T 1.889726e+02=T 90.00000=T Traj:=T positionsangstrom=T Step:=T 0=T Bead:=T pbc="F F F"
C      -48.80270000     -31.49300000     -70.62970000
C      -48.60320000     -32.40780000     -71.65800000
C      -48.39810000     -33.77640000     -71.35820000
C      -48.29570000     -34.18660000     -70.05950000
C      -48.43490000     -33.24540000     -69.03510000
C      -48.70880000     -31.88740000     -69.30920000
H      -48.99700000     -30.46690000     -70.86030000
H      -48.28360000     -34.47330000     -72.21930000
H      -48.33900000     -33.60750000     -68.04010000
H      -48.86600000     -31.20140000     -68.46050000
C      -48.22740000     -35.62810000     -69.63630000
H      -48.26470000     -36.38860000     -70.33920000
H      -49.10280000     -35.76820000     -68.98740000
C      -48.72570000     -32.00370000     -73.09390000
H      -48.84230000     -32.85530000     -73.77250000
H      -49.56330000     -31.32240000     -73.23900000
S      -46.81190000     -35.83410000     -68.46330000
S      -47.35020000     -30.81720000     -73.75290000
C      -45.42460000     -35.95610000     -69.64220000
H      -44.57340000     -36.47040000     -69.11570000
H      -45.63940000     -36.74990000     -70.41610000
C      -45.75720000     -31.70990000     -73.62600000
H      -45.08940000     -31.06450000     -74.20540000
H      -45.86460000     -32.69230000     -74.12630000
C      -45.16310000     -31.88150000     -72.17900000
H      -45.28490000     -30.92840000     -71.62710000
H      -45.76070000     -32.61750000     -71.63830000
C      -44.96330000     -34.68430000     -70.30080000
H      -45.06840000     -33.91500000     -69.57540000
H      -45.60310000     -34.48340000     -71.09200000
C      -43.54290000     -34.61760000     -70.85410000
C      -42.49110000     -35.52050000     -70.59230000
C      -43.07180000     -33.45860000     -71.59120000
H      -42.52380000     -36.46630000     -69.97360000
C      -41.70010000     -33.47950000     -71.79530000
C      -43.73680000     -32.35230000     -72.29960000
C      -42.78160000     -31.60600000     -72.99500000
S      -40.98480000     -34.98350000     -71.21890000
S      -41.12300000     -32.21450000     -72.84440000
H      -42.96040000     -30.75370000     -73.70400000
