40
Properties=species:S:1:pos:R:3 #=T CELL(abcABC):=T 1.889726e+02=T 90.00000=T Traj:=T positionsangstrom=T Step:=T 0=T Bead:=T pbc="F F F"
C      -45.85850000     -34.40460000     -73.53430000
C      -47.03190000     -33.66550000     -73.18210000
C      -47.84290000     -34.09420000     -72.14490000
C      -47.48340000     -35.25800000     -71.37820000
C      -46.38020000     -36.01970000     -71.79650000
C      -45.53260000     -35.51050000     -72.83730000
H      -45.16730000     -34.08110000     -74.33640000
H      -48.65780000     -33.45660000     -71.67930000
H      -46.00890000     -36.92900000     -71.29050000
H      -44.69460000     -36.15110000     -73.10350000
C      -48.19710000     -35.53780000     -70.13770000
H      -48.16530000     -36.64470000     -69.91940000
H      -49.18180000     -35.12530000     -70.26730000
C      -47.47360000     -32.43790000     -73.99590000
H      -47.49620000     -32.89140000     -74.98360000
H      -48.41990000     -32.10520000     -73.52810000
S      -47.40300000     -34.67300000     -68.63400000
S      -46.28710000     -31.03750000     -73.98930000
C      -47.03370000     -32.90060000     -69.11910000
H      -47.07930000     -32.68210000     -70.20480000
H      -47.80020000     -32.24400000     -68.61900000
C      -46.28670000     -30.73610000     -72.18340000
H      -46.78720000     -31.61510000     -71.70490000
H      -46.91630000     -29.90470000     -71.99200000
C      -44.93240000     -30.51800000     -71.60230000
H      -44.54740000     -29.59890000     -72.20920000
H      -45.11650000     -30.07550000     -70.61900000
C      -45.57390000     -32.47110000     -68.62480000
H      -45.55810000     -32.48870000     -67.50810000
H      -45.48020000     -31.35310000     -68.94730000
C      -44.51260000     -33.14600000     -69.32830000
C      -43.93360000     -34.26810000     -68.80250000
C      -43.90640000     -32.76580000     -70.65600000
H      -44.10130000     -34.70310000     -67.83070000
C      -42.82130000     -33.61890000     -70.97950000
C      -43.97080000     -31.65860000     -71.60210000
C      -43.06790000     -31.78850000     -72.63110000
S      -42.57610000     -34.83680000     -69.75900000
S      -42.01550000     -33.24950000     -72.41890000
H      -42.90220000     -31.06460000     -73.43770000
