40
Properties=species:S:1:pos:R:3 #=T CELL(abcABC):=T 1.889726e+02=T 90.00000=T Traj:=T positionsangstrom=T Step:=T 0=T Bead:=T pbc="F F F"
C      -48.46390000     -32.49250000     -69.38220000
C      -47.23470000     -32.17750000     -68.74680000
C      -46.34080000     -31.22260000     -69.27890000
C      -46.71400000     -30.53270000     -70.43590000
C      -48.01540000     -30.69780000     -70.93540000
C      -48.88920000     -31.70080000     -70.41740000
H      -49.16790000     -33.15450000     -68.92190000
H      -45.35560000     -31.02520000     -68.83470000
H      -48.30490000     -30.05740000     -71.82110000
H      -49.93630000     -31.84480000     -70.81370000
C      -45.71630000     -29.55840000     -71.02700000
H      -44.75160000     -29.68990000     -70.59190000
H      -46.05140000     -28.55140000     -70.80470000
C      -46.80760000     -33.01670000     -67.56410000
H      -45.81040000     -32.80610000     -67.07530000
H      -47.49420000     -32.93400000     -66.71340000
S      -45.65250000     -29.77720000     -72.85940000
S      -46.82630000     -34.90060000     -67.88060000
C      -45.29620000     -31.61160000     -72.87970000
H      -46.18210000     -32.16710000     -72.42150000
H      -45.05500000     -31.84920000     -73.87050000
C      -45.56520000     -35.33100000     -69.15010000
H      -45.58160000     -36.44800000     -69.15130000
H      -44.48600000     -35.18110000     -68.79580000
C      -45.81160000     -34.56630000     -70.46660000
H      -46.89360000     -34.51380000     -70.67490000
H      -45.39880000     -33.54600000     -70.43270000
C      -44.07880000     -31.95930000     -72.09450000
H      -44.33980000     -31.92320000     -71.08340000
H      -43.32980000     -31.14290000     -72.08880000
C      -43.52630000     -33.27820000     -72.63030000
C      -42.47350000     -33.30930000     -73.53360000
C      -44.03040000     -34.60020000     -72.40110000
H      -41.92030000     -32.49950000     -73.91840000
C      -43.39470000     -35.53500000     -73.23390000
C      -45.02450000     -35.25250000     -71.52250000
C      -45.00880000     -36.65000000     -71.82600000
S      -42.08110000     -34.87200000     -74.11690000
S      -43.77620000     -37.18570000     -72.97490000
H      -45.70980000     -37.36250000     -71.28640000
