40
Properties=species:S:1:pos:R:3 #=T CELL(abcABC):=T 1.889726e+02=T 90.00000=T Traj:=T positionsangstrom=T Step:=T 0=T Bead:=T pbc="F F F"
C      -45.46080000     -34.33330000     -73.63940000
C      -46.56750000     -33.53030000     -73.35860000
C      -47.45890000     -33.88810000     -72.32490000
C      -47.14380000     -34.97050000     -71.50740000
C      -46.04670000     -35.80170000     -71.87320000
C      -45.22770000     -35.50600000     -72.92450000
H      -44.71670000     -33.89660000     -74.30200000
H      -48.32880000     -33.34170000     -72.15470000
H      -45.96040000     -36.72090000     -71.33950000
H      -44.34910000     -36.05950000     -73.11850000
C      -48.11120000     -35.36680000     -70.39010000
H      -48.50410000     -36.41220000     -70.32430000
H      -49.06020000     -34.81070000     -70.41800000
C      -46.91510000     -32.39070000     -74.22360000
H      -46.59480000     -32.51970000     -75.26940000
H      -47.98950000     -32.29180000     -74.37990000
S      -47.50620000     -35.16760000     -68.57530000
S      -46.27320000     -30.71360000     -73.67680000
C      -47.28520000     -33.32480000     -68.80980000
H      -47.40080000     -33.22460000     -69.85620000
H      -47.90510000     -32.64850000     -68.18340000
C      -46.47570000     -30.74900000     -71.89550000
H      -46.74760000     -31.75980000     -71.61010000
H      -47.29650000     -30.02570000     -71.65930000
C      -45.11540000     -30.40970000     -71.19700000
H      -44.77170000     -29.50220000     -71.71520000
H      -45.19440000     -30.14850000     -70.09220000
C      -45.85850000     -32.83700000     -68.54950000
H      -45.62670000     -33.07440000     -67.46010000
H      -45.87480000     -31.70730000     -68.66970000
C      -44.73910000     -33.40440000     -69.49690000
C      -44.16000000     -34.58990000     -69.13170000
C      -44.02390000     -32.79630000     -70.63250000
H      -44.76190000     -35.27230000     -68.45200000
C      -43.03700000     -33.67210000     -71.12130000
C      -44.12490000     -31.53770000     -71.43260000
C      -43.03420000     -31.41430000     -72.27380000
S      -42.90970000     -35.15960000     -70.26800000
S      -41.99110000     -32.83020000     -72.19550000
H      -42.87830000     -30.63830000     -72.96500000
