40
Properties=species:S:1:pos:R:3 #=T CELL(abcABC):=T 1.889726e+02=T 90.00000=T Traj:=T positionsangstrom=T Step:=T 0=T Bead:=T pbc="F F F"
C      -45.73290000     -34.25010000     -73.61220000
C      -46.92690000     -33.60210000     -73.38000000
C      -47.72590000     -34.14720000     -72.32290000
C      -47.25140000     -35.19460000     -71.53970000
C      -45.94050000     -35.66180000     -71.66900000
C      -45.22920000     -35.23780000     -72.76520000
H      -44.97950000     -34.04570000     -74.40350000
H      -48.71590000     -33.71140000     -72.36320000
H      -45.65590000     -36.57270000     -71.16660000
H      -44.27990000     -35.62690000     -73.09830000
C      -48.04760000     -35.70480000     -70.41670000
H      -47.88380000     -36.74860000     -70.17330000
H      -49.11800000     -35.50320000     -70.43980000
C      -47.32040000     -32.30310000     -74.11730000
H      -47.45760000     -32.51530000     -75.13670000
H      -48.37420000     -31.99220000     -73.98330000
S      -47.42800000     -34.84700000     -68.83950000
S      -46.15100000     -30.95600000     -73.87580000
C      -47.06380000     -33.05560000     -69.18170000
H      -46.92920000     -32.86790000     -70.21280000
H      -47.86260000     -32.39900000     -68.72580000
C      -46.28200000     -30.61910000     -72.10320000
H      -46.86180000     -31.40730000     -71.62200000
H      -46.88560000     -29.75050000     -72.13340000
C      -45.02220000     -30.41170000     -71.26990000
H      -44.48070000     -29.56380000     -71.45150000
H      -45.41030000     -30.31820000     -70.24280000
C      -45.76850000     -32.68990000     -68.51750000
H      -45.70210000     -32.91290000     -67.40010000
H      -45.54120000     -31.59810000     -68.55840000
C      -44.54990000     -33.26000000     -69.19530000
C      -43.82590000     -34.27450000     -68.68750000
C      -43.95570000     -32.79000000     -70.47040000
H      -44.11690000     -34.80600000     -67.80370000
C      -42.92230000     -33.63250000     -70.90640000
C      -44.12400000     -31.67760000     -71.36220000
C      -43.35140000     -31.77010000     -72.48570000
S      -42.67910000     -34.98350000     -69.80090000
S      -42.33850000     -33.19470000     -72.48180000
H      -43.33240000     -31.07420000     -73.35620000
