40
Properties=species:S:1:pos:R:3 #=T CELL(abcABC):=T 1.889726e+02=T 90.00000=T Traj:=T positionsangstrom=T Step:=T 0=T Bead:=T pbc="F F F"
C      -45.53750000     -34.09990000     -73.53260000
C      -46.81460000     -33.56910000     -73.37760000
C      -47.65470000     -34.07740000     -72.36880000
C      -47.26360000     -35.14460000     -71.52500000
C      -46.06270000     -35.76930000     -71.86670000
C      -45.16550000     -35.19990000     -72.77330000
H      -44.79990000     -33.62000000     -74.15600000
H      -48.61160000     -33.48360000     -72.08080000
H      -45.49490000     -36.50060000     -71.21220000
H      -44.10640000     -35.57320000     -72.81560000
C      -48.11250000     -35.47030000     -70.29920000
H      -48.14340000     -36.58590000     -70.29040000
H      -49.13470000     -35.10020000     -70.59930000
C      -47.22390000     -32.36660000     -74.19960000
H      -46.78080000     -32.52130000     -75.20330000
H      -48.25960000     -32.04310000     -74.11330000
S      -47.42300000     -34.96520000     -68.66330000
S      -46.18300000     -30.85100000     -73.72840000
C      -47.08720000     -33.21580000     -69.12140000
H      -47.00160000     -33.24510000     -70.23580000
H      -47.97420000     -32.61910000     -68.96140000
C      -46.45220000     -30.72070000     -71.94690000
H      -46.87790000     -31.64510000     -71.48350000
H      -47.10860000     -29.86240000     -71.71750000
C      -45.09560000     -30.51300000     -71.21970000
H      -44.65560000     -29.49730000     -71.48490000
H      -45.34390000     -30.31800000     -70.14650000
C      -45.74590000     -32.69400000     -68.58920000
H      -45.62730000     -32.92330000     -67.52360000
H      -45.70920000     -31.61200000     -68.65750000
C      -44.59470000     -33.33230000     -69.31300000
C      -44.00490000     -34.47510000     -68.89200000
C      -44.05010000     -32.84530000     -70.57250000
H      -44.15550000     -34.79530000     -67.90290000
C      -43.00880000     -33.65080000     -71.02200000
C      -44.07900000     -31.65700000     -71.38310000
C      -43.28770000     -31.68490000     -72.51180000
S      -42.70650000     -34.99110000     -69.97350000
S      -42.23060000     -33.11810000     -72.45780000
H      -43.11200000     -30.81090000     -73.16070000
