40
Properties=species:S:1:pos:R:3 #=T CELL(abcABC):=T 1.889726e+02=T 90.00000=T Traj:=T positionsangstrom=T Step:=T 0=T Bead:=T pbc="F F F"
C      -48.39150000     -30.83990000     -72.36950000
C      -48.21750000     -32.19750000     -72.74270000
C      -48.35090000     -33.24080000     -71.78940000
C      -48.75150000     -32.95460000     -70.50380000
C      -48.95890000     -31.61900000     -70.11220000
C      -48.79040000     -30.60890000     -71.01740000
H      -48.33720000     -30.02740000     -73.11890000
H      -48.21180000     -34.34950000     -72.06470000
H      -49.11070000     -31.34560000     -69.03420000
H      -48.97110000     -29.59550000     -70.69490000
C      -48.84120000     -34.09090000     -69.48580000
H      -48.88390000     -35.12650000     -69.88900000
H      -49.70370000     -33.97130000     -68.84210000
C      -47.79080000     -32.50140000     -74.12510000
H      -47.58570000     -33.52810000     -74.37580000
H      -48.55860000     -32.09090000     -74.80010000
S      -47.48890000     -33.99190000     -68.20790000
S      -46.20430000     -31.52020000     -74.54140000
C      -46.13560000     -34.99560000     -68.93240000
H      -45.28000000     -34.97770000     -68.18240000
H      -46.43370000     -36.04160000     -69.01840000
C      -44.96400000     -32.77740000     -74.00280000
H      -44.20300000     -32.75960000     -74.73690000
H      -45.40610000     -33.73520000     -73.87800000
C      -44.52810000     -32.26280000     -72.62170000
H      -44.28730000     -31.24780000     -72.82420000
H      -45.32910000     -32.45020000     -71.86440000
C      -45.59330000     -34.56580000     -70.28080000
H      -45.83570000     -33.46090000     -70.42490000
H      -46.18720000     -35.04650000     -71.08940000
C      -44.09440000     -34.87460000     -70.44330000
C      -43.43040000     -35.85040000     -69.64290000
C      -43.19380000     -34.10300000     -71.27380000
H      -43.75400000     -36.58440000     -68.95260000
C      -41.89270000     -34.58690000     -71.09910000
C      -43.25200000     -32.95880000     -72.11770000
C      -41.98380000     -32.52030000     -72.51560000
S      -41.75170000     -35.81720000     -69.86630000
S      -40.72310000     -33.52620000     -71.82670000
H      -41.83460000     -31.83580000     -73.36800000
