40
Properties=species:S:1:pos:R:3 #=T CELL(abcABC):=T 1.889726e+02=T 90.00000=T Traj:=T positionsangstrom=T Step:=T 0=T Bead:=T pbc="F F F"
C      -45.38230000     -33.64910000     -73.64230000
C      -46.76250000     -33.40940000     -73.40700000
C      -47.49140000     -34.32350000     -72.64110000
C      -46.85080000     -35.44830000     -72.09920000
C      -45.51100000     -35.69340000     -72.40750000
C      -44.80220000     -34.87300000     -73.23170000
H      -44.89930000     -32.88270000     -74.29590000
H      -48.53580000     -34.22680000     -72.27930000
H      -45.00450000     -36.63170000     -71.96640000
H      -43.69130000     -35.10290000     -73.40660000
C      -47.54490000     -36.37690000     -71.06310000
H      -47.08930000     -37.41910000     -71.08170000
H      -48.59640000     -36.59140000     -71.20640000
C      -47.47110000     -32.15260000     -73.91160000
H      -47.50680000     -32.06360000     -75.00500000
H      -48.56810000     -32.07150000     -73.59400000
S      -47.29580000     -35.71190000     -69.33100000
S      -46.58370000     -30.56730000     -73.45450000
C      -47.34400000     -33.88670000     -69.39340000
H      -47.24900000     -33.56980000     -70.42180000
H      -48.33040000     -33.58750000     -69.06870000
C      -46.77990000     -30.78080000     -71.57160000
H      -47.14680000     -31.78390000     -71.42410000
H      -47.59250000     -30.10310000     -71.19180000
C      -45.46170000     -30.51530000     -70.77680000
H      -45.08200000     -29.47400000     -70.92870000
H      -45.67410000     -30.55930000     -69.66110000
C      -46.11270000     -33.16770000     -68.66580000
H      -46.12680000     -33.34600000     -67.60950000
H      -46.34650000     -32.11030000     -68.68390000
C      -44.84460000     -33.50190000     -69.33040000
C      -44.20240000     -34.65600000     -69.04520000
C      -44.11850000     -32.73170000     -70.35280000
H      -44.55960000     -35.45970000     -68.34890000
C      -42.89220000     -33.32790000     -70.69830000
C      -44.30220000     -31.46870000     -71.07160000
C      -43.17380000     -31.10540000     -71.80610000
S      -42.66390000     -34.88560000     -69.97180000
S      -42.00750000     -32.40370000     -71.81370000
H      -42.94700000     -30.19210000     -72.42590000
