40
Properties=species:S:1:pos:R:3 #=T CELL(abcABC):=T 1.889726e+02=T 90.00000=T Traj:=T positionsangstrom=T Step:=T 0=T Bead:=T pbc="F F F"
C      -45.16950000     -33.48380000     -73.87920000
C      -46.51140000     -33.35570000     -73.51860000
C      -47.08030000     -34.18790000     -72.55290000
C      -46.44030000     -35.35790000     -72.13400000
C      -45.07630000     -35.50590000     -72.50870000
C      -44.47580000     -34.57150000     -73.35560000
H      -44.58660000     -32.94510000     -74.59310000
H      -48.03010000     -33.96420000     -72.21450000
H      -44.69130000     -36.42160000     -72.25150000
H      -43.50250000     -34.87900000     -73.72000000
C      -47.18670000     -36.24850000     -71.23310000
H      -46.98180000     -37.36540000     -71.40940000
H      -48.21750000     -36.10360000     -71.38010000
C      -47.29980000     -32.21550000     -74.05880000
H      -47.04350000     -32.00970000     -75.10990000
H      -48.35920000     -32.36670000     -74.03660000
S      -46.84020000     -35.93370000     -69.41310000
S      -46.82590000     -30.58090000     -73.36210000
C      -47.35040000     -34.21460000     -69.16610000
H      -47.55430000     -33.93110000     -70.19390000
H      -48.25230000     -34.10120000     -68.58700000
C      -47.07020000     -30.75840000     -71.46070000
H      -47.44590000     -31.72260000     -71.20040000
H      -47.82390000     -29.98250000     -71.17300000
C      -45.76310000     -30.48160000     -70.75280000
H      -45.44370000     -29.51530000     -71.04290000
H      -45.98020000     -30.53370000     -69.64500000
C      -46.25860000     -33.31150000     -68.48000000
H      -46.13200000     -33.63470000     -67.46470000
H      -46.69170000     -32.32530000     -68.32170000
C      -44.86800000     -33.43160000     -69.11910000
C      -44.14290000     -34.56670000     -68.82910000
C      -44.37280000     -32.69120000     -70.24360000
H      -44.49560000     -35.31980000     -68.12940000
C      -43.20760000     -33.38220000     -70.73890000
C      -44.61330000     -31.48670000     -70.95760000
C      -43.60440000     -31.20300000     -71.83520000
S      -42.72830000     -34.80870000     -69.90130000
S      -42.36400000     -32.46100000     -71.98860000
H      -43.74560000     -30.50760000     -72.60350000
