40
Properties=species:S:1:pos:R:3 #=T CELL(abcABC):=T 1.889726e+02=T 90.00000=T Traj:=T positionsangstrom=T Step:=T 0=T Bead:=T pbc="F F F"
C      -48.34000000     -30.97080000     -71.68630000
C      -48.29830000     -32.16480000     -72.38280000
C      -48.57640000     -33.37300000     -71.73250000
C      -48.72730000     -33.36560000     -70.31110000
C      -48.85100000     -32.12650000     -69.62880000
C      -48.58600000     -30.92150000     -70.30230000
H      -48.26730000     -30.03260000     -72.23800000
H      -48.58310000     -34.30060000     -72.23400000
H      -48.87280000     -32.31560000     -68.58120000
H      -48.61010000     -30.05970000     -69.69520000
C      -48.90140000     -34.62220000     -69.52650000
H      -49.20590000     -35.44750000     -70.15270000
H      -49.80960000     -34.49720000     -68.83940000
C      -48.03000000     -32.17510000     -73.86220000
H      -47.99290000     -33.15810000     -74.26430000
H      -48.88300000     -31.66120000     -74.31700000
S      -47.51450000     -35.04430000     -68.30480000
S      -46.46570000     -31.35630000     -74.42280000
C      -45.99480000     -35.38820000     -69.29580000
H      -45.40980000     -35.97300000     -68.59470000
H      -46.21980000     -36.13330000     -70.11890000
C      -45.12070000     -32.39170000     -73.68800000
H      -44.44370000     -32.39200000     -74.53290000
H      -45.62530000     -33.30930000     -73.39410000
C      -44.54480000     -31.70360000     -72.34280000
H      -44.37470000     -30.67540000     -72.61430000
H      -45.29380000     -31.63060000     -71.52720000
C      -45.32320000     -34.19110000     -69.92390000
H      -45.49770000     -33.29340000     -69.34300000
H      -45.92230000     -33.90940000     -70.82410000
C      -43.90430000     -34.51260000     -70.40620000
C      -43.23940000     -35.61440000     -69.94150000
C      -43.12980000     -33.68020000     -71.26690000
H      -43.64940000     -36.45420000     -69.25790000
C      -41.82290000     -34.29460000     -71.38700000
C      -43.24700000     -32.48670000     -72.04600000
C      -42.06650000     -32.18550000     -72.69450000
S      -41.62280000     -35.75620000     -70.46940000
S      -40.71700000     -33.26470000     -72.34140000
H      -41.86960000     -31.37710000     -73.35290000
