40
Properties=species:S:1:pos:R:3 #=T CELL(abcABC):=T 1.889726e+02=T 90.00000=T Traj:=T positionsangstrom=T Step:=T 0=T Bead:=T pbc="F F F"
C      -48.58820000     -30.82800000     -71.91010000
C      -48.37500000     -32.09330000     -72.47800000
C      -48.40250000     -33.23930000     -71.67540000
C      -48.79450000     -33.13160000     -70.30900000
C      -48.87530000     -31.85310000     -69.69510000
C      -48.70830000     -30.69540000     -70.52150000
H      -48.34240000     -29.95680000     -72.49470000
H      -48.03070000     -34.21770000     -72.03450000
H      -49.11090000     -31.81300000     -68.61810000
H      -48.78060000     -29.74830000     -70.12170000
C      -48.97030000     -34.40510000     -69.50830000
H      -49.10470000     -35.26910000     -70.20560000
H      -49.84680000     -34.42400000     -68.87250000
C      -48.00160000     -32.36170000     -73.88410000
H      -47.84520000     -33.42640000     -73.95780000
H      -48.80320000     -32.07830000     -74.64100000
S      -47.65040000     -34.89400000     -68.36710000
S      -46.47700000     -31.49870000     -74.36290000
C      -46.19440000     -35.37190000     -69.45170000
H      -45.56640000     -35.89220000     -68.67290000
H      -46.50560000     -36.11120000     -70.17180000
C      -45.07860000     -32.40020000     -73.75180000
H      -44.18570000     -32.41820000     -74.40620000
H      -45.24960000     -33.49370000     -73.71900000
C      -44.54980000     -31.83760000     -72.30950000
H      -44.46430000     -30.75940000     -72.39650000
H      -45.35450000     -32.07600000     -71.58810000
C      -45.29080000     -34.28860000     -70.11330000
H      -45.15880000     -33.44350000     -69.41670000
H      -45.72050000     -33.94050000     -71.01130000
C      -43.84170000     -34.69330000     -70.39170000
C      -43.22770000     -35.78950000     -69.90600000
C      -43.02960000     -33.76150000     -71.13740000
H      -43.65940000     -36.41150000     -69.02420000
C      -41.71090000     -34.23910000     -71.14620000
C      -43.21790000     -32.57850000     -72.01860000
C      -42.03100000     -32.24460000     -72.60110000
S      -41.45730000     -35.76870000     -70.37100000
S      -40.69580000     -33.38310000     -72.26850000
H      -41.85620000     -31.46080000     -73.33170000
