40
Properties=species:S:1:pos:R:3 #=T CELL(abcABC):=T 1.889726e+02=T 90.00000=T Traj:=T positionsangstrom=T Step:=T 0=T Bead:=T pbc="F F F"
C      -45.31220000     -33.58960000     -73.84480000
C      -46.63240000     -33.36880000     -73.50250000
C      -47.28950000     -34.21630000     -72.63820000
C      -46.64700000     -35.34600000     -72.03620000
C      -45.34070000     -35.60420000     -72.43720000
C      -44.72220000     -34.80180000     -73.39290000
H      -44.71340000     -32.94110000     -74.49520000
H      -48.28980000     -34.04800000     -72.47610000
H      -44.84860000     -36.58130000     -72.10210000
H      -43.73780000     -35.13750000     -73.68830000
C      -47.41330000     -36.26660000     -71.15270000
H      -46.90920000     -37.19100000     -71.33480000
H      -48.45770000     -36.26040000     -71.53580000
C      -47.39820000     -32.18520000     -73.89450000
H      -47.44360000     -32.26800000     -74.95920000
H      -48.37200000     -32.23870000     -73.46030000
S      -47.28600000     -35.88790000     -69.36560000
S      -46.61970000     -30.64420000     -73.31010000
C      -47.48630000     -33.99230000     -69.34200000
H      -47.67100000     -33.62450000     -70.33120000
H      -48.32660000     -33.80820000     -68.60450000
C      -46.79880000     -30.70150000     -71.48260000
H      -47.28280000     -31.65380000     -71.16900000
H      -47.54870000     -30.00320000     -71.14850000
C      -45.44810000     -30.38820000     -70.74020000
H      -45.17140000     -29.37460000     -71.10030000
H      -45.66480000     -30.18460000     -69.73100000
C      -46.28690000     -33.28950000     -68.74440000
H      -46.11310000     -33.50200000     -67.70010000
H      -46.38550000     -32.22410000     -68.94220000
C      -44.95570000     -33.61450000     -69.37880000
C      -44.19050000     -34.72320000     -69.13270000
C      -44.26590000     -32.71640000     -70.31540000
H      -44.54600000     -35.53730000     -68.41500000
C      -43.02700000     -33.28550000     -70.66390000
C      -44.38470000     -31.45430000     -71.03880000
C      -43.34330000     -31.16350000     -71.90730000
S      -42.60480000     -34.81490000     -69.84780000
S      -42.09060000     -32.36950000     -71.81890000
H      -43.12730000     -30.19230000     -72.36490000
