40
Properties=species:S:1:pos:R:3 #=T CELL(abcABC):=T 1.889726e+02=T 90.00000=T Traj:=T positionsangstrom=T Step:=T 0=T Bead:=T pbc="F F F"
C      -41.93410000     -33.49020000     -70.02260000
C      -42.51630000     -34.73430000     -70.50690000
C      -42.51150000     -34.98060000     -71.91220000
C      -42.07690000     -33.92320000     -72.78230000
C      -41.68820000     -32.71200000     -72.30040000
C      -41.69470000     -32.45960000     -70.86900000
H      -42.07020000     -33.33690000     -68.96740000
H      -42.76330000     -35.97440000     -72.30870000
H      -41.32670000     -31.96300000     -73.06250000
H      -41.39540000     -31.49890000     -70.47700000
C      -42.16010000     -34.25940000     -74.25900000
H      -41.53460000     -35.08970000     -74.44120000
H      -41.85610000     -33.33510000     -74.82560000
C      -43.06230000     -35.79610000     -69.56380000
H      -43.69280000     -36.49720000     -70.06820000
H      -42.18580000     -36.27640000     -69.15800000
S      -43.86290000     -34.75940000     -74.71900000
S      -44.07660000     -35.23120000     -68.14510000
C      -45.13410000     -33.52700000     -73.86110000
H      -44.63390000     -32.66080000     -73.52930000
H      -45.81650000     -33.14860000     -74.70290000
C      -45.45830000     -34.50090000     -68.99690000
H      -46.36260000     -34.50430000     -68.41590000
H      -45.70620000     -35.17400000     -69.85580000
C      -45.24360000     -33.06580000     -69.47240000
H      -44.76850000     -32.44360000     -68.67370000
H      -44.49770000     -33.10460000     -70.27980000
C      -46.04470000     -34.27630000     -72.76710000
H      -45.43220000     -34.42940000     -71.93080000
H      -46.35740000     -35.22960000     -73.14650000
C      -47.15580000     -33.33340000     -72.39570000
C      -48.25580000     -33.12630000     -73.17080000
C      -47.34180000     -32.63220000     -71.09340000
H      -48.35180000     -33.56740000     -74.11590000
C      -48.48830000     -31.73850000     -71.02050000
C      -46.56890000     -32.36710000     -69.85400000
C      -47.17370000     -31.46360000     -68.97270000
S      -49.43210000     -31.94360000     -72.46340000
S      -48.61340000     -30.76330000     -69.61890000
H      -46.77230000     -30.94260000     -68.12320000
