40
Properties=species:S:1:pos:R:3 #=T CELL(abcABC):=T 1.889726e+02=T 90.00000=T Traj:=T positionsangstrom=T Step:=T 0=T Bead:=T pbc="F F F"
C      -47.98480000     -30.78400000     -73.02830000
C      -48.03050000     -32.20730000     -73.21580000
C      -48.33080000     -33.03400000     -72.10330000
C      -48.75230000     -32.58900000     -70.87060000
C      -48.65590000     -31.12430000     -70.68420000
C      -48.29450000     -30.26570000     -71.73770000
H      -47.69460000     -30.04890000     -73.82690000
H      -48.58410000     -34.04000000     -72.38060000
H      -48.93270000     -30.70280000     -69.70870000
H      -48.33830000     -29.18750000     -71.63770000
C      -49.04690000     -33.63010000     -69.78560000
H      -48.96040000     -34.61540000     -70.21460000
H      -50.06430000     -33.48700000     -69.44840000
C      -47.70550000     -32.82400000     -74.52290000
H      -47.90280000     -33.92150000     -74.45310000
H      -48.14160000     -32.38280000     -75.41430000
S      -47.96580000     -33.51110000     -68.33030000
S      -45.91130000     -32.38780000     -74.88690000
C      -46.38280000     -34.31190000     -68.72540000
H      -45.94820000     -34.18340000     -67.71470000
H      -46.43730000     -35.37220000     -68.91820000
C      -45.00470000     -33.34990000     -73.61820000
H      -44.42320000     -34.16300000     -74.07320000
H      -45.74780000     -33.88020000     -72.90950000
C      -44.11700000     -32.43570000     -72.83090000
H      -43.61110000     -31.74440000     -73.48550000
H      -44.80540000     -31.79180000     -72.13320000
C      -45.51550000     -33.73840000     -69.89030000
H      -45.39520000     -32.63840000     -69.73190000
H      -46.03320000     -33.98060000     -70.77120000
C      -44.17210000     -34.30980000     -69.86330000
C      -43.81640000     -35.16760000     -68.90280000
C      -43.11700000     -33.92730000     -70.83000000
H      -44.42460000     -35.69150000     -68.09870000
C      -41.97110000     -34.64010000     -70.54120000
C      -43.04010000     -33.13580000     -72.03740000
C      -41.81030000     -33.22500000     -72.59620000
S      -42.09620000     -35.71960000     -69.11340000
S      -40.75210000     -34.41800000     -71.80620000
H      -41.56980000     -32.71910000     -73.52350000
