40
Properties=species:S:1:pos:R:3 #=T CELL(abcABC):=T 1.889726e+02=T 90.00000=T Traj:=T positionsangstrom=T Step:=T 0=T Bead:=T pbc="F F F"
C      -48.46320000     -34.04900000     -70.43840000
C      -48.60720000     -33.30550000     -71.61570000
C      -48.01170000     -33.77780000     -72.76080000
C      -47.36500000     -35.02360000     -72.83270000
C      -47.33730000     -35.78080000     -71.63450000
C      -47.87890000     -35.29720000     -70.48000000
H      -48.88690000     -33.68350000     -69.53250000
H      -48.25880000     -33.34190000     -73.70750000
H      -46.72270000     -36.64660000     -71.67070000
H      -47.76120000     -35.85440000     -69.60570000
C      -46.88030000     -35.57720000     -74.09940000
H      -47.59160000     -35.49130000     -74.92450000
H      -46.67970000     -36.63990000     -74.03910000
C      -49.27800000     -31.98180000     -71.67800000
H      -49.91600000     -31.88930000     -72.53970000
H      -49.88620000     -31.53610000     -70.88590000
S      -45.28100000     -34.79250000     -74.60470000
S      -48.02800000     -30.69350000     -72.07310000
C      -44.30440000     -34.90980000     -73.02090000
H      -45.08410000     -34.96650000     -72.25600000
H      -43.71300000     -35.80890000     -73.12550000
C      -46.71500000     -31.03010000     -70.80060000
H      -47.21400000     -31.70080000     -70.05320000
H      -46.34690000     -30.12720000     -70.35730000
C      -45.58390000     -31.88660000     -71.35920000
H      -45.95350000     -32.68690000     -71.93600000
H      -45.02960000     -31.28000000     -72.08440000
C      -43.36520000     -33.70730000     -72.88930000
H      -43.80630000     -32.76240000     -73.15240000
H      -42.57900000     -33.90090000     -73.70210000
C      -42.75870000     -33.73640000     -71.55260000
C      -41.61270000     -34.47820000     -71.18890000
C      -43.29220000     -32.97320000     -70.47310000
H      -41.06270000     -35.16690000     -71.78130000
C      -42.55480000     -33.02420000     -69.29080000
C      -44.59760000     -32.32000000     -70.24890000
C      -44.72420000     -31.95350000     -68.96680000
S      -41.14590000     -34.12960000     -69.53830000
S      -43.33420000     -32.31090000     -67.91920000
H      -45.49390000     -31.31710000     -68.54280000
