40
Properties=species:S:1:pos:R:3 #=T CELL(abcABC):=T 1.889726e+02=T 90.00000=T Traj:=T positionsangstrom=T Step:=T 0=T Bead:=T pbc="F F F"
C      -41.50840000     -35.29560000     -70.64470000
C      -42.70940000     -35.56040000     -71.38290000
C      -43.01490000     -35.00520000     -72.61350000
C      -42.19800000     -33.96390000     -73.14310000
C      -40.99140000     -33.69310000     -72.46390000
C      -40.68560000     -34.29440000     -71.21680000
H      -41.45120000     -35.90150000     -69.75090000
H      -43.95270000     -35.15860000     -73.08250000
H      -40.47680000     -32.74320000     -72.76360000
H      -39.72160000     -34.08020000     -70.75370000
C      -42.68600000     -33.12140000     -74.29870000
H      -41.95190000     -33.08320000     -75.16350000
H      -42.81870000     -32.04770000     -73.88720000
C      -43.57650000     -36.69500000     -70.73070000
H      -44.36930000     -36.96520000     -71.42260000
H      -43.06670000     -37.61650000     -70.53000000
S      -44.30840000     -33.71180000     -75.03050000
S      -44.20240000     -36.20380000     -69.11620000
C      -45.44020000     -32.57250000     -74.00470000
H      -44.77920000     -31.72270000     -73.78830000
H      -46.29030000     -32.17190000     -74.66520000
C      -45.55980000     -35.02470000     -69.45130000
H      -46.21470000     -35.35540000     -68.62870000
H      -46.08060000     -35.32420000     -70.38040000
C      -45.23040000     -33.54290000     -69.43070000
H      -44.65020000     -33.23110000     -68.50080000
H      -44.68990000     -33.33790000     -70.30180000
C      -46.13140000     -33.25310000     -72.72270000
H      -45.38290000     -33.53310000     -71.93090000
H      -46.61380000     -34.20590000     -72.98750000
C      -47.18340000     -32.33250000     -72.04250000
C      -48.02430000     -31.41410000     -72.72020000
C      -47.18890000     -32.17490000     -70.59390000
H      -48.29710000     -31.47370000     -73.78050000
C      -48.31410000     -31.38840000     -70.26910000
C      -46.52820000     -32.75750000     -69.41550000
C      -47.23860000     -32.50730000     -68.27040000
S      -48.99650000     -30.55490000     -71.57720000
S      -48.51980000     -31.34780000     -68.51360000
H      -46.94910000     -32.85440000     -67.31510000
