40
Properties=species:S:1:pos:R:3 #=T CELL(abcABC):=T 1.889726e+02=T 90.00000=T Traj:=T positionsangstrom=T Step:=T 0=T Bead:=T pbc="F F F"
C      -48.64750000     -34.19990000     -70.64130000
C      -48.60180000     -33.38220000     -71.76810000
C      -48.12810000     -33.90930000     -72.97670000
C      -47.43500000     -35.07520000     -72.99360000
C      -47.40700000     -35.86650000     -71.84570000
C      -48.09360000     -35.45970000     -70.63470000
H      -49.07870000     -33.85630000     -69.69710000
H      -48.05310000     -33.33060000     -73.85850000
H      -47.08680000     -36.86630000     -71.90960000
H      -48.28650000     -36.11100000     -69.90200000
C      -46.78470000     -35.60590000     -74.22410000
H      -47.46420000     -35.53620000     -75.08240000
H      -46.48200000     -36.64710000     -73.99790000
C      -49.27230000     -31.94770000     -71.66780000
H      -50.02000000     -31.93750000     -72.47440000
H      -49.67630000     -31.93090000     -70.64340000
S      -45.33540000     -34.67600000     -74.69300000
S      -48.01260000     -30.61530000     -71.94250000
C      -44.18810000     -34.84650000     -73.24370000
H      -44.90580000     -34.81620000     -72.40860000
H      -43.73880000     -35.84210000     -73.16250000
C      -46.78420000     -31.08030000     -70.66770000
H      -47.39950000     -31.39120000     -69.79300000
H      -46.31660000     -30.13280000     -70.34570000
C      -45.72840000     -32.11280000     -71.08980000
H      -46.15610000     -33.11120000     -71.37380000
H      -45.33670000     -31.72130000     -72.09120000
C      -43.09590000     -33.76810000     -73.00300000
H      -43.55410000     -32.86950000     -73.26680000
H      -42.20610000     -33.91650000     -73.67520000
C      -42.68500000     -33.60040000     -71.55310000
C      -41.44210000     -34.17320000     -71.15230000
C      -43.36260000     -33.03980000     -70.40560000
H      -40.89950000     -34.79580000     -71.79850000
C      -42.66720000     -33.23870000     -69.18440000
C      -44.56200000     -32.23100000     -70.12650000
C      -44.64120000     -31.79400000     -68.83710000
S      -41.07440000     -34.00100000     -69.44810000
S      -43.28960000     -32.39890000     -67.79600000
H      -45.43810000     -31.29130000     -68.39300000
