40
Properties=species:S:1:pos:R:3 #=T CELL(abcABC):=T 1.889726e+02=T 90.00000=T Traj:=T positionsangstrom=T Step:=T 0=T Bead:=T pbc="F F F"
C      -47.08010000     -30.50770000     -73.09510000
C      -47.51060000     -31.80480000     -73.27190000
C      -47.95250000     -32.55050000     -72.11190000
C      -48.17360000     -31.87370000     -70.91330000
C      -47.76340000     -30.53370000     -70.73680000
C      -47.21340000     -29.86890000     -71.84570000
H      -46.64720000     -30.01830000     -73.91400000
H      -48.14560000     -33.60500000     -72.18070000
H      -47.88320000     -30.13960000     -69.75030000
H      -46.69100000     -28.91140000     -71.63060000
C      -49.02870000     -32.57900000     -69.88380000
H      -49.48240000     -33.61920000     -70.17570000
H      -49.78510000     -31.90480000     -69.51420000
C      -47.52860000     -32.37140000     -74.68070000
H      -48.13000000     -33.22030000     -74.75910000
H      -47.98170000     -31.65460000     -75.38870000
S      -48.00320000     -32.93290000     -68.33950000
S      -45.81280000     -32.77790000     -75.30150000
C      -46.65970000     -34.01070000     -69.10620000
H      -46.30760000     -34.72070000     -68.32540000
H      -46.93500000     -34.56640000     -69.99230000
C      -45.37690000     -34.27640000     -74.27250000
H      -44.52100000     -34.75510000     -74.88470000
H      -46.23850000     -34.96870000     -74.31340000
C      -44.99070000     -33.94600000     -72.80240000
H      -45.00860000     -32.82690000     -72.77990000
H      -45.83580000     -34.19770000     -72.20180000
C      -45.47260000     -33.05030000     -69.42670000
H      -45.35410000     -32.28880000     -68.64640000
H      -45.58430000     -32.39590000     -70.29720000
C      -44.12420000     -33.78840000     -69.52400000
C      -43.49440000     -34.18450000     -68.33240000
C      -43.43660000     -34.26300000     -70.71450000
H      -43.72830000     -33.67780000     -67.46130000
C      -42.30310000     -34.99060000     -70.34540000
C      -43.71940000     -34.43950000     -72.15170000
C      -42.67120000     -35.05360000     -72.79380000
S      -41.95830000     -34.96900000     -68.61390000
S      -41.42410000     -35.64460000     -71.74580000
H      -42.58420000     -35.15210000     -73.88540000
