40
Properties=species:S:1:pos:R:3 #=T CELL(abcABC):=T 1.889726e+02=T 90.00000=T Traj:=T positionsangstrom=T Step:=T 0=T Bead:=T pbc="F F F"
C      -42.71060000     -31.95080000     -74.26690000
C      -42.40820000     -32.60450000     -73.03120000
C      -42.91430000     -32.16320000     -71.82010000
C      -43.52920000     -30.92160000     -71.66480000
C      -43.76460000     -30.23990000     -72.88520000
C      -43.55290000     -30.80930000     -74.16040000
H      -42.42920000     -32.31300000     -75.22170000
H      -42.69090000     -32.73810000     -70.91110000
H      -44.36790000     -29.31240000     -72.88080000
H      -43.64410000     -30.20110000     -75.06530000
C      -43.61300000     -30.27360000     -70.34100000
H      -42.77980000     -29.62990000     -70.08860000
H      -43.46570000     -31.00220000     -69.55730000
C      -41.58150000     -33.94290000     -73.06840000
H      -40.73810000     -33.79840000     -73.72860000
H      -41.18320000     -34.27370000     -72.14320000
S      -45.23660000     -29.36750000     -70.04070000
S      -42.61970000     -35.31600000     -73.67990000
C      -46.42360000     -30.79200000     -69.82650000
H      -46.40490000     -31.01650000     -68.75460000
H      -47.47380000     -30.40280000     -70.03880000
C      -43.78540000     -35.82720000     -72.35160000
H      -43.27070000     -36.28110000     -71.55050000
H      -44.39950000     -36.65680000     -72.77800000
C      -44.78590000     -34.84360000     -71.86270000
H      -44.28040000     -34.15770000     -71.15880000
H      -45.10340000     -34.16710000     -72.65580000
C      -46.08770000     -32.04680000     -70.63210000
H      -45.08590000     -32.37180000     -70.28630000
H      -46.07230000     -31.83950000     -71.70770000
C      -47.08030000     -33.18050000     -70.31460000
C      -48.30520000     -32.92550000     -69.72540000
C      -46.82380000     -34.62460000     -70.43640000
H      -48.77420000     -32.00910000     -69.63460000
C      -47.84910000     -35.29630000     -69.85970000
C      -45.89500000     -35.51210000     -71.10270000
C      -46.32680000     -36.77950000     -71.09480000
S      -49.16740000     -34.40070000     -69.26090000
S      -47.78420000     -37.08820000     -70.11630000
H      -45.91670000     -37.64860000     -71.63150000
