40
Properties=species:S:1:pos:R:3 #=T CELL(abcABC):=T 1.889726e+02=T 90.00000=T Traj:=T positionsangstrom=T Step:=T 0=T Bead:=T pbc="F F F"
C      -46.82820000     -30.85340000     -73.04680000
C      -47.70060000     -31.97040000     -73.25760000
C      -48.57210000     -32.44310000     -72.28590000
C      -48.51040000     -31.90490000     -70.96880000
C      -47.68520000     -30.81320000     -70.72870000
C      -46.78770000     -30.35760000     -71.71890000
H      -46.08990000     -30.51060000     -73.78550000
H      -49.11720000     -33.39990000     -72.42530000
H      -47.58790000     -30.50860000     -69.65390000
H      -46.06210000     -29.61900000     -71.45440000
C      -49.26440000     -32.46920000     -69.79380000
H      -49.96290000     -33.21100000     -70.04680000
H      -49.92900000     -31.70400000     -69.32600000
C      -47.70190000     -32.73220000     -74.59800000
H      -48.23470000     -33.72740000     -74.50750000
H      -48.31670000     -32.17350000     -75.23850000
S      -48.16790000     -33.18500000     -68.54120000
S      -45.98470000     -32.82590000     -75.26200000
C      -46.66910000     -34.12830000     -69.22910000
H      -46.45630000     -34.97660000     -68.57230000
H      -46.94000000     -34.67660000     -70.14400000
C      -45.26660000     -34.10020000     -74.13290000
H      -44.34220000     -34.21370000     -74.59380000
H      -45.89380000     -35.02830000     -74.21170000
C      -45.00100000     -33.82920000     -72.63620000
H      -44.93570000     -32.71340000     -72.53650000
H      -45.88840000     -33.99150000     -72.02360000
C      -45.48760000     -33.18260000     -69.38460000
H      -45.43530000     -32.53290000     -68.53580000
H      -45.60500000     -32.56830000     -70.22240000
C      -44.07860000     -33.82090000     -69.43400000
C      -43.29470000     -34.02500000     -68.33000000
C      -43.44250000     -34.28110000     -70.68820000
H      -43.59630000     -33.86760000     -67.24930000
C      -42.13640000     -34.76880000     -70.38730000
C      -43.66770000     -34.34590000     -72.06930000
C      -42.61240000     -34.80030000     -72.80260000
S      -41.69800000     -34.66850000     -68.71310000
S      -41.26520000     -35.31010000     -71.73160000
H      -42.61160000     -35.11290000     -73.84980000
