40
Properties=species:S:1:pos:R:3 #=T CELL(abcABC):=T 1.889726e+02=T 90.00000=T Traj:=T positionsangstrom=T Step:=T 0=T Bead:=T pbc="F F F"
C      -41.78750000     -31.93490000     -73.55630000
C      -42.11060000     -32.64730000     -72.32980000
C      -42.82840000     -31.93270000     -71.39790000
C      -43.15350000     -30.54940000     -71.50690000
C      -42.84920000     -29.87920000     -72.68120000
C      -42.13200000     -30.56640000     -73.67260000
H      -41.18020000     -32.41380000     -74.23610000
H      -43.01050000     -32.36350000     -70.37340000
H      -43.01070000     -28.81960000     -72.68950000
H      -41.69140000     -30.01840000     -74.53740000
C      -43.92650000     -29.80000000     -70.42170000
H      -43.41030000     -28.85690000     -70.23610000
H      -43.97230000     -30.33080000     -69.49110000
C      -41.70120000     -34.05580000     -72.12090000
H      -40.63220000     -34.11080000     -72.41030000
H      -41.85430000     -34.40770000     -71.11200000
S      -45.69290000     -29.37290000     -70.79640000
S      -42.49870000     -35.24830000     -73.26120000
C      -46.66830000     -30.88960000     -70.21960000
H      -46.88340000     -30.77800000     -69.13960000
H      -47.69190000     -30.74740000     -70.59460000
C      -44.09490000     -35.69360000     -72.45750000
H      -43.88720000     -35.64720000     -71.37150000
H      -44.28760000     -36.78370000     -72.61680000
C      -45.37080000     -34.91480000     -72.83890000
H      -45.12300000     -33.89270000     -72.85810000
H      -45.63630000     -35.24400000     -73.80830000
C      -46.14110000     -32.26380000     -70.60260000
H      -45.05400000     -32.43310000     -70.27090000
H      -46.04000000     -32.34950000     -71.69870000
C      -47.05410000     -33.37510000     -70.03860000
C      -47.90430000     -33.28190000     -68.94040000
C      -47.04980000     -34.68540000     -70.67720000
H      -48.08510000     -32.44010000     -68.20060000
C      -47.99430000     -35.51660000     -70.07450000
C      -46.51960000     -35.32000000     -71.84530000
C      -46.94560000     -36.66500000     -71.96720000
S      -48.84830000     -34.79740000     -68.70470000
S      -48.21750000     -37.07210000     -70.78360000
H      -46.69650000     -37.14070000     -72.95210000
