40
Properties=species:S:1:pos:R:3 #=T CELL(abcABC):=T 1.889726e+02=T 90.00000=T Traj:=T positionsangstrom=T Step:=T 0=T Bead:=T pbc="F F F"
C      -41.75980000     -31.88540000     -73.52760000
C      -42.12150000     -32.62190000     -72.39510000
C      -42.73960000     -31.94980000     -71.33260000
C      -43.03140000     -30.57250000     -71.45720000
C      -42.65100000     -29.85140000     -72.56640000
C      -41.97850000     -30.50360000     -73.63170000
H      -41.32260000     -32.44470000     -74.31780000
H      -42.98780000     -32.53330000     -70.40190000
H      -42.96570000     -28.82310000     -72.66080000
H      -41.66130000     -29.91570000     -74.48380000
C      -43.74820000     -29.79420000     -70.34310000
H      -43.30510000     -28.77940000     -70.28260000
H      -43.69570000     -30.28850000     -69.31280000
C      -41.75550000     -34.07570000     -72.10230000
H      -40.63890000     -34.13400000     -72.15330000
H      -42.15910000     -34.32790000     -71.08920000
S      -45.55610000     -29.60130000     -70.92350000
S      -42.62840000     -35.23730000     -73.24630000
C      -46.63800000     -30.79960000     -70.14270000
H      -46.76050000     -30.72340000     -69.06870000
H      -47.60450000     -30.61720000     -70.66340000
C      -44.13800000     -35.75330000     -72.25410000
H      -43.90660000     -35.71600000     -71.19320000
H      -44.40340000     -36.77300000     -72.51320000
C      -45.33610000     -34.76140000     -72.56820000
H      -45.19310000     -33.72170000     -72.22370000
H      -45.47470000     -34.67810000     -73.69670000
C      -46.12760000     -32.21590000     -70.48800000
H      -45.27090000     -32.41380000     -69.93300000
H      -45.94090000     -32.19510000     -71.62550000
C      -47.05890000     -33.37310000     -70.12760000
C      -47.82210000     -33.32730000     -69.01580000
C      -47.20890000     -34.68970000     -70.77300000
H      -47.98370000     -32.40030000     -68.43460000
C      -48.19690000     -35.47640000     -70.19420000
C      -46.57060000     -35.34850000     -71.90130000
C      -47.17810000     -36.60110000     -72.10780000
S      -48.78130000     -34.73090000     -68.67440000
S      -48.35820000     -37.09050000     -70.91050000
H      -46.78530000     -37.32530000     -72.90490000
