40
Properties=species:S:1:pos:R:3 #=T CELL(abcABC):=T 1.889726e+02=T 90.00000=T Traj:=T positionsangstrom=T Step:=T 0=T Bead:=T pbc="F F F"
C      -41.78450000     -31.98150000     -73.44040000
C      -42.01090000     -32.64090000     -72.26380000
C      -42.62100000     -31.91730000     -71.17770000
C      -42.99010000     -30.59010000     -71.37880000
C      -42.60800000     -29.88770000     -72.53730000
C      -41.94870000     -30.60430000     -73.57160000
H      -41.44640000     -32.60540000     -74.30990000
H      -42.80810000     -32.41270000     -70.25530000
H      -42.86470000     -28.84420000     -72.57530000
H      -41.62700000     -30.07690000     -74.41810000
C      -43.81510000     -29.83270000     -70.43560000
H      -43.42310000     -28.86520000     -70.21760000
H      -43.83370000     -30.30770000     -69.47080000
C      -41.69050000     -34.11430000     -72.15560000
H      -40.67870000     -34.32900000     -72.42460000
H      -41.78360000     -34.55030000     -71.14550000
S      -45.57130000     -29.50990000     -70.96320000
S      -42.63000000     -35.25600000     -73.29760000
C      -46.33600000     -30.94620000     -70.02070000
H      -45.90840000     -31.03780000     -69.04220000
H      -47.37770000     -30.72150000     -69.78720000
C      -44.07350000     -35.70160000     -72.30110000
H      -43.75600000     -35.56960000     -71.26790000
H      -44.33870000     -36.75650000     -72.48270000
C      -45.37200000     -34.81940000     -72.62080000
H      -45.08850000     -33.74670000     -72.57570000
H      -45.58240000     -34.98170000     -73.66990000
C      -46.21270000     -32.34010000     -70.71580000
H      -45.14440000     -32.58190000     -70.71170000
H      -46.42710000     -32.34220000     -71.82100000
C      -47.01130000     -33.45950000     -70.00660000
C      -47.82730000     -33.28870000     -68.92510000
C      -47.17100000     -34.71810000     -70.65650000
H      -47.94350000     -32.45400000     -68.29520000
C      -48.21880000     -35.44670000     -70.14950000
C      -46.53280000     -35.31810000     -71.77770000
C      -47.10260000     -36.53930000     -72.08930000
S      -48.95660000     -34.71930000     -68.69840000
S      -48.47720000     -36.92000000     -71.04520000
H      -46.87720000     -37.22900000     -72.94590000
