40
Properties=species:S:1:pos:R:3 #=T CELL(abcABC):=T 1.889726e+02=T 90.00000=T Traj:=T positionsangstrom=T Step:=T 0=T Bead:=T pbc="F F F"
C      -42.02300000     -31.92420000     -73.63010000
C      -42.01790000     -32.53410000     -72.36120000
C      -42.68330000     -31.85040000     -71.32360000
C      -43.11800000     -30.55980000     -71.47280000
C      -43.19040000     -30.01800000     -72.73650000
C      -42.66190000     -30.68440000     -73.85910000
H      -41.48180000     -32.47770000     -74.43980000
H      -42.73520000     -32.39430000     -70.35100000
H      -43.71960000     -29.05460000     -72.94190000
H      -42.69710000     -30.27340000     -74.86730000
C      -43.81350000     -29.84890000     -70.37760000
H      -43.32770000     -28.93170000     -70.13980000
H      -43.88500000     -30.51440000     -69.53680000
C      -41.47250000     -33.94650000     -72.23650000
H      -40.39110000     -34.08010000     -72.55000000
H      -41.56850000     -34.28760000     -71.14320000
S      -45.58410000     -29.47620000     -70.76270000
S      -42.42060000     -35.14780000     -73.28210000
C      -46.67370000     -30.81280000     -69.98320000
H      -46.27560000     -30.96830000     -68.96520000
H      -47.71070000     -30.48910000     -70.11120000
C      -43.95140000     -35.42460000     -72.26100000
H      -43.73620000     -35.29070000     -71.21530000
H      -44.04670000     -36.51080000     -72.27910000
C      -45.35910000     -34.89380000     -72.69580000
H      -45.47170000     -33.82020000     -72.65520000
H      -45.51950000     -35.02670000     -73.75970000
C      -46.48830000     -32.08130000     -70.76730000
H      -45.41340000     -32.26940000     -70.87510000
H      -46.96730000     -31.85800000     -71.75920000
C      -47.21820000     -33.32930000     -70.21890000
C      -48.00570000     -33.26670000     -69.13890000
C      -47.16350000     -34.71140000     -70.80190000
H      -48.21300000     -32.40210000     -68.56820000
C      -48.02790000     -35.55470000     -70.03640000
C      -46.42370000     -35.46770000     -71.80540000
C      -46.72360000     -36.82020000     -71.76200000
S      -48.86240000     -34.74450000     -68.79200000
S      -48.05800000     -37.22990000     -70.66970000
H      -46.21400000     -37.59330000     -72.27110000
