40
Properties=species:S:1:pos:R:3 #=T CELL(abcABC):=T 1.889726e+02=T 90.00000=T Traj:=T positionsangstrom=T Step:=T 0=T Bead:=T pbc="F F F"
C      -42.06740000     -31.95960000     -73.52670000
C      -42.18330000     -32.70550000     -72.32390000
C      -42.67770000     -32.04370000     -71.15200000
C      -42.92860000     -30.68520000     -71.18840000
C      -42.50270000     -29.91560000     -72.30600000
C      -42.23190000     -30.57330000     -73.50840000
H      -41.84240000     -32.36030000     -74.50590000
H      -42.76820000     -32.57470000     -70.17800000
H      -42.52650000     -28.81760000     -72.33850000
H      -42.26860000     -30.00090000     -74.47110000
C      -43.46240000     -29.94450000     -69.96550000
H      -43.02220000     -28.92790000     -69.84670000
H      -43.33860000     -30.48650000     -68.97800000
C      -41.70590000     -34.12550000     -72.20130000
H      -40.62180000     -34.16440000     -72.40110000
H      -41.82610000     -34.69710000     -71.23680000
S      -45.26370000     -29.65090000     -70.17320000
S      -42.55480000     -35.27430000     -73.41250000
C      -46.04510000     -31.22020000     -69.49000000
H      -45.53930000     -31.49530000     -68.51940000
H      -47.06490000     -30.86870000     -69.21860000
C      -44.20150000     -35.39570000     -72.34990000
H      -43.94140000     -34.93140000     -71.39210000
H      -44.31030000     -36.47680000     -72.30430000
C      -45.40980000     -34.71260000     -72.96210000
H      -45.19070000     -33.65290000     -72.93000000
H      -45.64610000     -35.02670000     -73.94560000
C      -46.19490000     -32.35950000     -70.40430000
H      -45.27480000     -32.81930000     -70.55700000
H      -46.52560000     -32.04510000     -71.45420000
C      -47.16050000     -33.40720000     -70.02430000
C      -48.03970000     -33.37250000     -69.00110000
C      -47.19620000     -34.62770000     -70.85030000
H      -48.08700000     -32.58210000     -68.27320000
C      -48.20940000     -35.45160000     -70.38510000
C      -46.64240000     -35.07890000     -72.11510000
C      -47.22890000     -36.24080000     -72.56310000
S      -49.05890000     -34.80120000     -69.01890000
S      -48.47770000     -36.82160000     -71.41100000
H      -46.94940000     -36.83800000     -73.39390000
