40
Properties=species:S:1:pos:R:3 #=T CELL(abcABC):=T 1.889726e+02=T 90.00000=T Traj:=T positionsangstrom=T Step:=T 0=T Bead:=T pbc="F F F"
C      -42.15690000     -32.09890000     -72.94870000
C      -41.92580000     -33.11200000     -71.98980000
C      -42.05920000     -32.84450000     -70.64710000
C      -42.25970000     -31.52750000     -70.18960000
C      -42.26510000     -30.47230000     -71.10850000
C      -42.25540000     -30.75550000     -72.51080000
H      -42.17410000     -32.22770000     -74.03570000
H      -42.04420000     -33.57810000     -69.84490000
H      -42.49930000     -29.51040000     -70.74060000
H      -42.32730000     -29.89450000     -73.15820000
C      -42.68150000     -31.32560000     -68.70060000
H      -41.95890000     -30.67160000     -68.23780000
H      -42.59990000     -32.34120000     -68.12990000
C      -41.72790000     -34.50230000     -72.49080000
H      -40.79510000     -34.65610000     -72.90050000
H      -41.86700000     -35.31550000     -71.75500000
S      -44.33400000     -30.58920000     -68.69450000
S      -42.92060000     -34.96550000     -73.91710000
C      -45.52780000     -32.00210000     -68.71520000
H      -45.07480000     -32.90140000     -68.26970000
H      -46.40160000     -31.81430000     -68.16970000
C      -44.60880000     -35.06160000     -73.17900000
H      -44.52150000     -35.28060000     -72.13670000
H      -45.04780000     -36.01220000     -73.47020000
C      -45.58900000     -33.89780000     -73.37360000
H      -45.17190000     -33.05280000     -72.85800000
H      -45.69990000     -33.72800000     -74.41620000
C      -45.95730000     -32.39910000     -70.17740000
H      -45.12790000     -32.90770000     -70.65800000
H      -45.94260000     -31.44570000     -70.76430000
C      -47.18200000     -33.19090000     -70.30430000
C      -48.16920000     -33.27990000     -69.42500000
C      -47.53350000     -34.04640000     -71.39910000
H      -48.35670000     -32.76530000     -68.49040000
C      -48.70200000     -34.74820000     -71.22540000
C      -46.92280000     -34.36750000     -72.75680000
C      -47.68220000     -35.32300000     -73.41620000
S      -49.36020000     -34.48450000     -69.64890000
S      -49.11900000     -35.92400000     -72.52390000
H      -47.59730000     -35.73680000     -74.41800000
