40
Properties=species:S:1:pos:R:3 #=T CELL(abcABC):=T 1.889726e+02=T 90.00000=T Traj:=T positionsangstrom=T Step:=T 0=T Bead:=T pbc="F F F"
C      -42.04760000     -31.86150000     -73.35500000
C      -41.99560000     -32.85450000     -72.40830000
C      -42.37520000     -32.56140000     -71.08350000
C      -42.61170000     -31.23860000     -70.65090000
C      -42.51120000     -30.22080000     -71.56590000
C      -42.32150000     -30.50200000     -72.94410000
H      -42.00820000     -32.07570000     -74.35830000
H      -42.42960000     -33.41130000     -70.37820000
H      -42.76060000     -29.19510000     -71.36960000
H      -42.37620000     -29.63980000     -73.50100000
C      -42.83170000     -30.96910000     -69.21380000
H      -42.11860000     -30.30450000     -68.82170000
H      -42.80910000     -31.86030000     -68.63010000
C      -41.60630000     -34.24320000     -72.88890000
H      -40.78260000     -34.10260000     -73.53630000
H      -41.15600000     -34.83450000     -72.04930000
S      -44.52540000     -30.20990000     -68.77900000
S      -42.92080000     -35.29450000     -73.68470000
C      -45.74490000     -31.74360000     -68.69860000
H      -45.59580000     -32.46960000     -67.94020000
H      -46.67510000     -31.32820000     -68.30650000
C      -44.27200000     -35.11310000     -72.44680000
H      -43.73960000     -34.64010000     -71.58990000
H      -44.71090000     -36.11680000     -72.25220000
C      -45.37820000     -34.11020000     -72.90290000
H      -45.11560000     -33.19550000     -72.37660000
H      -45.18630000     -33.96340000     -74.00510000
C      -46.00010000     -32.40590000     -70.10620000
H      -45.02590000     -32.89670000     -70.28910000
H      -46.14220000     -31.59130000     -70.79350000
C      -47.24370000     -33.30440000     -70.12610000
C      -48.26710000     -33.33240000     -69.24670000
C      -47.43810000     -34.32530000     -71.20260000
H      -48.24890000     -32.78340000     -68.32130000
C      -48.55220000     -35.09220000     -71.07120000
C      -46.77100000     -34.62560000     -72.48730000
C      -47.36290000     -35.67910000     -73.14470000
S      -49.44270000     -34.63850000     -69.58170000
S      -48.83880000     -36.21860000     -72.36340000
H      -47.03370000     -35.95830000     -74.14230000
