40
Properties=species:S:1:pos:R:3 #=T CELL(abcABC):=T 1.889726e+02=T 90.00000=T Traj:=T positionsangstrom=T Step:=T 0=T Bead:=T pbc="F F F"
C      -41.89200000     -31.80160000     -73.25080000
C      -41.88200000     -32.84550000     -72.30410000
C      -42.31600000     -32.62300000     -70.99310000
C      -42.61240000     -31.29030000     -70.59160000
C      -42.62460000     -30.22230000     -71.54030000
C      -42.16400000     -30.45440000     -72.89540000
H      -41.42880000     -32.06960000     -74.16560000
H      -42.30860000     -33.43080000     -70.26220000
H      -42.84410000     -29.16210000     -71.25890000
H      -42.14730000     -29.67850000     -73.62670000
C      -42.92630000     -31.03610000     -69.12530000
H      -42.18270000     -30.30430000     -68.73740000
H      -42.61470000     -32.02230000     -68.64150000
C      -41.49750000     -34.27640000     -72.73880000
H      -40.73180000     -34.30220000     -73.50180000
H      -41.17040000     -34.93600000     -71.93400000
S      -44.59240000     -30.40310000     -68.73920000
S      -42.85490000     -35.27270000     -73.68120000
C      -45.68680000     -31.87160000     -68.65970000
H      -45.04950000     -32.73340000     -68.28560000
H      -46.46570000     -31.44050000     -68.07750000
C      -44.37940000     -35.24360000     -72.62630000
H      -44.15330000     -35.15240000     -71.58060000
H      -44.79330000     -36.24710000     -72.68180000
C      -45.31950000     -34.16390000     -73.06030000
H      -44.95280000     -33.22050000     -72.60380000
H      -45.35960000     -34.16360000     -74.13780000
C      -46.14570000     -32.28870000     -70.06770000
H      -45.44260000     -32.70050000     -70.71650000
H      -46.52340000     -31.47670000     -70.71740000
C      -47.24210000     -33.32400000     -70.10600000
C      -48.22930000     -33.44600000     -69.19920000
C      -47.39950000     -34.21170000     -71.24740000
H      -48.37980000     -32.79410000     -68.36950000
C      -48.56910000     -34.98570000     -71.09530000
C      -46.76080000     -34.53940000     -72.49850000
C      -47.42660000     -35.52590000     -73.20850000
S      -49.48690000     -34.54790000     -69.68630000
S      -48.90170000     -36.10680000     -72.40170000
H      -46.99170000     -35.90690000     -74.18480000
