40
Properties=species:S:1:pos:R:3 #=T CELL(abcABC):=T 1.889726e+02=T 90.00000=T Traj:=T positionsangstrom=T Step:=T 0=T Bead:=T pbc="F F F"
C      -41.93240000     -32.16110000     -72.85240000
C      -42.05780000     -33.43830000     -72.22550000
C      -42.28070000     -33.33400000     -70.78350000
C      -42.34210000     -32.08750000     -70.12640000
C      -42.15800000     -30.90800000     -70.81410000
C      -41.93740000     -30.90990000     -72.21680000
H      -41.85240000     -32.06080000     -73.93940000
H      -42.39180000     -34.16710000     -70.11460000
H      -42.15680000     -29.99770000     -70.25620000
H      -41.77250000     -30.03650000     -72.80780000
C      -42.79450000     -32.05140000     -68.63430000
H      -41.97640000     -31.79410000     -68.02130000
H      -42.93770000     -33.06490000     -68.19030000
C      -41.76030000     -34.66150000     -73.04260000
H      -40.93150000     -34.50110000     -73.60400000
H      -41.75150000     -35.58850000     -72.49240000
S      -44.14240000     -30.92000000     -68.32080000
S      -43.07440000     -34.86240000     -74.42030000
C      -45.65290000     -31.96600000     -68.51550000
H      -45.66280000     -32.67580000     -67.65920000
H      -46.52700000     -31.32010000     -68.40740000
C      -44.60640000     -35.31100000     -73.36840000
H      -44.23080000     -35.88780000     -72.55410000
H      -45.26430000     -35.75570000     -74.06850000
C      -45.27770000     -33.97040000     -72.77980000
H      -44.70480000     -33.70050000     -71.85030000
H      -45.10360000     -33.18210000     -73.48280000
C      -45.73630000     -32.76410000     -69.79320000
H      -44.95160000     -33.54550000     -69.74530000
H      -45.48670000     -32.16200000     -70.62610000
C      -47.10020000     -33.35010000     -69.97800000
C      -48.07780000     -33.54870000     -69.04290000
C      -47.48890000     -33.91080000     -71.27240000
H      -48.04940000     -33.23340000     -67.99590000
C      -48.82170000     -34.25910000     -71.31010000
C      -46.76030000     -34.12390000     -72.52930000
C      -47.67320000     -34.47270000     -73.54590000
S      -49.61410000     -34.19330000     -69.82880000
S      -49.24790000     -35.02250000     -72.92610000
H      -47.38630000     -34.77670000     -74.57790000
