40
Properties=species:S:1:pos:R:3 #=T CELL(abcABC):=T 1.889726e+02=T 90.00000=T Traj:=T positionsangstrom=T Step:=T 0=T Bead:=T pbc="F F F"
C      -41.72370000     -32.07480000     -72.88990000
C      -41.83850000     -33.29670000     -72.21810000
C      -42.15370000     -33.25010000     -70.83850000
C      -42.44730000     -32.08170000     -70.15690000
C      -42.34060000     -30.86240000     -70.83010000
C      -41.89300000     -30.90090000     -72.14040000
H      -41.46270000     -32.05430000     -73.93440000
H      -42.21270000     -34.24120000     -70.31610000
H      -42.45320000     -29.91120000     -70.34940000
H      -41.69330000     -29.96390000     -72.64600000
C      -42.66410000     -32.23650000     -68.72210000
H      -41.75870000     -31.80540000     -68.14440000
H      -42.86730000     -33.28960000     -68.44500000
C      -41.75530000     -34.67500000     -72.86430000
H      -40.73790000     -34.79930000     -73.37370000
H      -41.67820000     -35.40210000     -72.00700000
S      -44.15540000     -31.12010000     -68.25540000
S      -43.00170000     -34.88850000     -74.18740000
C      -45.65090000     -32.15330000     -68.29460000
H      -45.65940000     -32.71730000     -67.37240000
H      -46.41370000     -31.37630000     -68.14760000
C      -44.68640000     -35.06580000     -73.55710000
H      -44.78760000     -35.92020000     -72.86580000
H      -45.32370000     -35.39190000     -74.43140000
C      -45.41230000     -33.83000000     -72.96290000
H      -44.86880000     -33.29690000     -72.12630000
H      -45.46300000     -33.06690000     -73.76570000
C      -45.79420000     -32.87610000     -69.65560000
H      -45.11560000     -33.77040000     -69.70390000
H      -45.41160000     -32.11730000     -70.37880000
C      -47.17940000     -33.34400000     -70.04080000
C      -48.22720000     -33.38030000     -69.19980000
C      -47.47290000     -33.93540000     -71.27510000
H      -48.42380000     -33.05060000     -68.18190000
C      -48.77230000     -34.43610000     -71.33050000
C      -46.77060000     -34.18490000     -72.49910000
C      -47.60750000     -34.72260000     -73.52710000
S      -49.64780000     -34.05510000     -69.95140000
S      -49.28290000     -34.90900000     -73.03030000
H      -47.33930000     -35.15350000     -74.43050000
