40
Properties=species:S:1:pos:R:3 #=T CELL(abcABC):=T 1.889726e+02=T 90.00000=T Traj:=T positionsangstrom=T Step:=T 0=T Bead:=T pbc="F F F"
C      -41.87690000     -32.09380000     -72.98390000
C      -41.99770000     -33.23590000     -72.16240000
C      -42.30530000     -33.12080000     -70.74390000
C      -42.49510000     -31.83920000     -70.20740000
C      -42.24320000     -30.77580000     -71.03870000
C      -41.95360000     -30.82140000     -72.39360000
H      -41.58280000     -32.22600000     -74.01530000
H      -42.45980000     -33.90080000     -70.00890000
H      -42.40840000     -29.82420000     -70.50890000
H      -41.73150000     -29.92700000     -72.95850000
C      -42.72810000     -31.70940000     -68.66230000
H      -42.00300000     -30.98820000     -68.19390000
H      -42.86970000     -32.60970000     -68.22830000
C      -41.81030000     -34.55410000     -72.87780000
H      -40.78200000     -34.54740000     -73.26410000
H      -41.79910000     -35.35620000     -72.23610000
S      -44.28170000     -30.72490000     -68.37410000
S      -43.00820000     -34.87790000     -74.22820000
C      -45.57360000     -32.00580000     -68.52300000
H      -45.38990000     -32.78900000     -67.83330000
H      -46.41930000     -31.39110000     -68.17930000
C      -44.59020000     -35.14690000     -73.28890000
H      -44.37740000     -35.56050000     -72.34820000
H      -45.08100000     -35.95050000     -73.78190000
C      -45.53130000     -33.87240000     -73.25180000
H      -45.07180000     -33.21250000     -72.51440000
H      -45.70670000     -33.36690000     -74.23940000
C      -45.74580000     -32.44360000     -69.96720000
H      -44.89410000     -33.03530000     -70.26740000
H      -45.72140000     -31.60250000     -70.61400000
C      -47.03680000     -33.30680000     -70.20810000
C      -48.02100000     -33.40030000     -69.23110000
C      -47.38350000     -34.09410000     -71.42560000
H      -47.94670000     -32.85450000     -68.29210000
C      -48.63400000     -34.63420000     -71.24520000
C      -46.88550000     -34.33760000     -72.79210000
C      -47.71710000     -35.17950000     -73.36760000
S      -49.40750000     -34.27170000     -69.62440000
S      -49.33020000     -35.44960000     -72.64860000
H      -47.68420000     -35.76670000     -74.30630000
