40
Properties=species:S:1:pos:R:3 #=T CELL(abcABC):=T 1.889726e+02=T 90.00000=T Traj:=T positionsangstrom=T Step:=T 0=T Bead:=T pbc="F F F"
C      -41.80400000     -32.14980000     -72.82210000
C      -41.87970000     -33.37920000     -72.16790000
C      -42.30320000     -33.37050000     -70.79340000
C      -42.52010000     -32.14530000     -70.11870000
C      -42.34340000     -30.92860000     -70.77830000
C      -42.01720000     -30.92860000     -72.13810000
H      -41.38660000     -32.15180000     -73.86290000
H      -42.29830000     -34.33000000     -70.29320000
H      -42.40140000     -29.95970000     -70.28350000
H      -41.90400000     -30.01910000     -72.72100000
C      -42.74140000     -32.08130000     -68.58790000
H      -41.91750000     -31.51290000     -68.15840000
H      -42.71090000     -33.05880000     -68.05270000
C      -41.69210000     -34.72670000     -73.01460000
H      -40.70070000     -34.96240000     -73.34920000
H      -41.94870000     -35.50980000     -72.27320000
S      -44.26180000     -31.12500000     -67.99970000
S      -42.87590000     -34.77420000     -74.40070000
C      -45.69950000     -32.29000000     -68.29820000
H      -45.68430000     -33.11110000     -67.57430000
H      -46.64150000     -31.68460000     -68.04350000
C      -44.45580000     -35.15030000     -73.39830000
H      -44.07190000     -35.73500000     -72.53580000
H      -45.06690000     -35.83170000     -74.01790000
C      -45.28040000     -33.94880000     -72.91670000
H      -44.77380000     -33.62080000     -72.01980000
H      -45.23440000     -33.11970000     -73.64070000
C      -45.75270000     -32.81300000     -69.76720000
H      -44.94270000     -33.56250000     -69.97460000
H      -45.43570000     -31.97890000     -70.41680000
C      -47.08980000     -33.40530000     -70.10340000
C      -48.17630000     -33.47990000     -69.18670000
C      -47.47270000     -33.81730000     -71.41170000
H      -48.22560000     -33.31860000     -68.11490000
C      -48.79040000     -34.27370000     -71.41820000
C      -46.75890000     -34.15960000     -72.64970000
C      -47.65820000     -34.60950000     -73.58310000
S      -49.69530000     -33.89600000     -70.03340000
S      -49.26760000     -35.00900000     -72.95610000
H      -47.37650000     -35.03850000     -74.58480000
