40
Properties=species:S:1:pos:R:3 #=T CELL(abcABC):=T 1.889726e+02=T 90.00000=T Traj:=T positionsangstrom=T Step:=T 0=T Bead:=T pbc="F F F"
C      -49.26370000     -34.67750000     -71.09850000
C      -48.80760000     -33.61530000     -71.86520000
C      -48.03790000     -33.84860000     -73.03580000
C      -47.65900000     -35.16250000     -73.34740000
C      -48.11150000     -36.26390000     -72.56870000
C      -48.95140000     -36.00390000     -71.47710000
H      -49.86410000     -34.50800000     -70.22650000
H      -47.66000000     -33.06840000     -73.70430000
H      -47.89990000     -37.34180000     -72.72210000
H      -49.29310000     -36.83080000     -70.81460000
C      -46.61760000     -35.36130000     -74.40110000
H      -47.03540000     -35.44970000     -75.41100000
H      -46.09830000     -36.29460000     -74.22260000
C      -49.26680000     -32.17360000     -71.60760000
H      -50.01370000     -31.73000000     -72.31240000
H      -49.84570000     -32.11520000     -70.60720000
S      -45.29480000     -34.06630000     -74.59550000
S      -47.88690000     -30.82760000     -71.71120000
C      -44.31720000     -34.38770000     -73.09040000
H      -45.09050000     -34.45550000     -72.33020000
H      -43.82170000     -35.36840000     -73.06010000
C      -46.67280000     -31.22520000     -70.33800000
H      -47.16960000     -31.43220000     -69.40920000
H      -46.14110000     -30.28100000     -70.31600000
C      -45.67190000     -32.30460000     -70.76420000
H      -46.18480000     -33.27970000     -71.02660000
H      -45.24530000     -32.00190000     -71.72310000
C      -43.27070000     -33.24330000     -72.83880000
H      -43.85860000     -32.32870000     -72.99100000
H      -42.57150000     -33.17690000     -73.66720000
C      -42.60110000     -33.41470000     -71.44320000
C      -41.31450000     -33.82830000     -71.33090000
C      -43.23170000     -33.10350000     -70.20370000
H      -40.57470000     -34.08770000     -72.14040000
C      -42.36400000     -33.24740000     -69.12790000
C      -44.55180000     -32.49500000     -69.80110000
C      -44.47360000     -32.05050000     -68.48500000
S      -40.79250000     -33.78780000     -69.65310000
S      -43.06930000     -32.63520000     -67.59120000
H      -45.24190000     -31.44340000     -67.99950000
