40
Properties=species:S:1:pos:R:3 #=T CELL(abcABC):=T 1.889726e+02=T 90.00000=T Traj:=T positionsangstrom=T Step:=T 0=T Bead:=T pbc="F F F"
C      -41.90150000     -31.77140000     -72.43670000
C      -41.94000000     -33.11990000     -71.96490000
C      -42.18720000     -33.43980000     -70.64410000
C      -42.45660000     -32.34570000     -69.76390000
C      -42.45480000     -31.02180000     -70.24980000
C      -42.09900000     -30.71520000     -71.58040000
H      -41.68800000     -31.61830000     -73.45910000
H      -42.27710000     -34.46800000     -70.31300000
H      -42.69620000     -30.19900000     -69.58190000
H      -41.94410000     -29.65230000     -71.81750000
C      -42.61360000     -32.73250000     -68.30060000
H      -41.70400000     -32.45140000     -67.67880000
H      -42.55900000     -33.81370000     -68.22780000
C      -41.76150000     -34.23990000     -72.98730000
H      -40.75120000     -34.13870000     -73.47170000
H      -41.77540000     -35.20800000     -72.47000000
S      -44.10180000     -31.95010000     -67.60290000
S      -42.89010000     -34.43660000     -74.38650000
C      -45.48390000     -33.03880000     -68.31190000
H      -45.11860000     -34.13160000     -68.35680000
H      -46.32140000     -33.06800000     -67.57730000
C      -44.52850000     -34.80780000     -73.46740000
H      -44.29070000     -35.42910000     -72.59680000
H      -45.07810000     -35.46760000     -74.13630000
C      -45.25650000     -33.51320000     -73.24160000
H      -44.86570000     -32.92020000     -72.43920000
H      -45.12060000     -32.87420000     -74.18360000
C      -46.04530000     -32.62660000     -69.69510000
H      -45.23810000     -32.73750000     -70.47620000
H      -46.46540000     -31.64270000     -69.68250000
C      -47.24490000     -33.43710000     -70.22140000
C      -48.30880000     -33.64550000     -69.40640000
C      -47.43630000     -33.79960000     -71.64370000
H      -48.36010000     -33.17930000     -68.45850000
C      -48.72750000     -34.30780000     -71.69580000
C      -46.75870000     -33.76780000     -72.92400000
C      -47.62440000     -34.11060000     -73.91350000
S      -49.68170000     -34.29850000     -70.29080000
S      -49.25140000     -34.61820000     -73.37610000
H      -47.36360000     -34.12170000     -74.92550000
