40
Properties=species:S:1:pos:R:3 #=T CELL(abcABC):=T 1.889726e+02=T 90.00000=T Traj:=T positionsangstrom=T Step:=T 0=T Bead:=T pbc="F F F"
C      -44.53400000     -33.85990000     -67.17330000
C      -44.16440000     -34.71260000     -68.17340000
C      -45.09920000     -35.33390000     -69.06700000
C      -46.46230000     -35.18880000     -68.76170000
C      -46.82150000     -34.19990000     -67.82710000
C      -45.88870000     -33.57650000     -67.00600000
H      -43.72560000     -33.38450000     -66.53610000
H      -44.73630000     -36.02560000     -69.80290000
H      -47.89470000     -33.92960000     -67.64040000
H      -46.19710000     -32.82650000     -66.29510000
C      -47.58140000     -36.00060000     -69.51480000
H      -48.30960000     -36.39640000     -68.79490000
H      -47.06770000     -36.74440000     -70.05040000
C      -42.67970000     -34.82470000     -68.49150000
H      -42.21500000     -33.91690000     -68.04670000
H      -42.25240000     -35.70020000     -68.02040000
S      -48.70960000     -34.99100000     -70.55530000
S      -42.01530000     -34.96480000     -70.23410000
C      -47.44330000     -34.30230000     -71.75810000
H      -46.72860000     -35.17030000     -72.02740000
H      -47.99010000     -34.18030000     -72.73300000
C      -43.02540000     -33.71110000     -71.12400000
H      -42.37640000     -32.94370000     -71.38350000
H      -43.79990000     -33.23980000     -70.48670000
C      -43.77380000     -34.33700000     -72.31530000
H      -43.08240000     -34.84320000     -73.05220000
H      -44.54320000     -35.05770000     -71.90210000
C      -46.83310000     -32.93830000     -71.26820000
H      -45.96350000     -33.19210000     -70.66220000
H      -47.53010000     -32.43370000     -70.60330000
C      -46.48870000     -32.02930000     -72.37900000
C      -47.12120000     -30.84360000     -72.62720000
C      -45.29270000     -32.22990000     -73.11840000
H      -48.03690000     -30.44520000     -72.31990000
C      -45.14510000     -31.18200000     -74.07860000
C      -44.25250000     -33.25380000     -73.23950000
C      -43.39340000     -32.91930000     -74.31380000
S      -46.40780000     -29.99740000     -73.92890000
S      -43.93760000     -31.45340000     -75.22800000
H      -42.49060000     -33.38920000     -74.69910000
