40
Properties=species:S:1:pos:R:3 #=T CELL(abcABC):=T 1.889726e+02=T 90.00000=T Traj:=T positionsangstrom=T Step:=T 0=T Bead:=T pbc="F F F"
C      -47.14340000     -29.85010000     -71.71810000
C      -47.85800000     -30.99380000     -71.42470000
C      -48.01940000     -31.96730000     -72.43640000
C      -47.53740000     -31.82170000     -73.73550000
C      -46.77310000     -30.68430000     -73.98190000
C      -46.61500000     -29.69100000     -72.99760000
H      -47.18170000     -28.94110000     -71.05560000
H      -48.40120000     -32.91390000     -72.10650000
H      -46.13780000     -30.59640000     -74.88090000
H      -46.11190000     -28.73950000     -73.28500000
C      -47.71810000     -32.81740000     -74.82430000
H      -47.09500000     -32.52830000     -75.73150000
H      -48.76400000     -32.78400000     -75.12900000
C      -48.32870000     -31.31030000     -69.98240000
H      -49.10320000     -30.57180000     -69.55380000
H      -48.71950000     -32.33610000     -69.91960000
S      -47.35740000     -34.63770000     -74.37930000
S      -46.83430000     -30.97770000     -68.97050000
C      -45.60310000     -34.55100000     -73.79530000
H      -45.15500000     -35.44190000     -74.29950000
H      -45.13260000     -33.64470000     -74.30340000
C      -45.41590000     -32.04360000     -69.33860000
H      -44.68390000     -31.73660000     -68.62180000
H      -45.13690000     -31.83250000     -70.35370000
C      -45.69260000     -33.54180000     -69.11880000
H      -46.08910000     -33.59100000     -68.05270000
H      -46.35430000     -33.92380000     -69.88240000
C      -45.47710000     -34.59370000     -72.28060000
H      -46.13530000     -35.34980000     -71.89140000
H      -45.79280000     -33.64740000     -71.84670000
C      -44.13340000     -35.03770000     -71.76750000
C      -43.13620000     -35.71650000     -72.46150000
C      -43.79910000     -34.92150000     -70.35410000
H      -43.24120000     -35.91360000     -73.50860000
C      -42.42720000     -35.30780000     -70.18560000
C      -44.36640000     -34.29360000     -69.13780000
C      -43.42510000     -34.27240000     -68.08190000
S      -41.63160000     -36.03610000     -71.50930000
S      -41.88770000     -35.05930000     -68.49410000
H      -43.58000000     -33.90930000     -67.04510000
