40
Properties=species:S:1:pos:R:3 #=T CELL(abcABC):=T 1.889726e+02=T 90.00000=T Traj:=T positionsangstrom=T Step:=T 0=T Bead:=T pbc="F F F"
C      -41.52040000     -31.58330000     -71.78130000
C      -41.95710000     -32.94630000     -71.81230000
C      -42.46520000     -33.46360000     -70.61200000
C      -42.58790000     -32.68290000     -69.49900000
C      -42.33690000     -31.32210000     -69.57010000
C      -41.85220000     -30.77980000     -70.72660000
H      -41.08120000     -31.25490000     -72.72040000
H      -42.82960000     -34.51860000     -70.59450000
H      -42.54040000     -30.60050000     -68.75330000
H      -41.61290000     -29.77370000     -70.81290000
C      -43.09650000     -33.31480000     -68.17720000
H      -42.28000000     -33.27380000     -67.47160000
H      -43.33610000     -34.37950000     -68.31300000
C      -41.70330000     -33.80810000     -73.01760000
H      -40.68550000     -33.73390000     -73.48590000
H      -41.75280000     -34.85920000     -72.69970000
S      -44.52450000     -32.47480000     -67.32120000
S      -42.76950000     -33.51720000     -74.52580000
C      -46.01940000     -33.33180000     -68.18200000
H      -45.97870000     -34.33030000     -67.62450000
H      -46.95780000     -32.86380000     -67.94940000
C      -44.49940000     -33.85510000     -73.97280000
H      -44.45970000     -34.80610000     -73.42940000
H      -45.08880000     -33.84720000     -74.94160000
C      -45.24470000     -32.82640000     -73.10530000
H      -44.66140000     -32.79130000     -72.10000000
H      -45.16870000     -31.87150000     -73.52470000
C      -45.81610000     -33.56850000     -69.68250000
H      -45.12390000     -34.42570000     -69.83250000
H      -45.46520000     -32.67730000     -70.25310000
C      -47.14920000     -34.03730000     -70.31560000
C      -48.12650000     -34.70140000     -69.67750000
C      -47.40360000     -33.80430000     -71.77850000
H      -48.15040000     -34.87640000     -68.59950000
C      -48.69590000     -34.29110000     -72.05990000
C      -46.73100000     -33.18650000     -72.88000000
C      -47.56370000     -33.30940000     -74.01530000
S      -49.50610000     -34.97940000     -70.72430000
S      -49.11860000     -34.15830000     -73.72870000
H      -47.36170000     -33.33070000     -75.12990000
