40
Properties=species:S:1:pos:R:3 #=T CELL(abcABC):=T 1.889726e+02=T 90.00000=T Traj:=T positionsangstrom=T Step:=T 0=T Bead:=T pbc="F F F"
C      -44.07110000     -34.74390000     -72.97940000
C      -45.17510000     -34.31300000     -73.71530000
C      -46.48220000     -34.69920000     -73.40820000
C      -46.61630000     -35.60410000     -72.33720000
C      -45.53000000     -36.04660000     -71.56350000
C      -44.23180000     -35.65290000     -71.88740000
H      -43.10740000     -34.39170000     -73.24410000
H      -47.31690000     -34.28070000     -74.04550000
H      -45.68920000     -36.71210000     -70.72300000
H      -43.25870000     -36.03950000     -71.42100000
C      -48.01850000     -35.90920000     -71.78770000
H      -48.07920000     -36.86020000     -71.31850000
H      -48.71480000     -35.83500000     -72.60660000
C      -44.99630000     -33.29360000     -74.92250000
H      -44.20270000     -33.55750000     -75.63770000
H      -45.95460000     -33.18800000     -75.43390000
S      -48.58670000     -34.79940000     -70.42630000
S      -44.43950000     -31.63770000     -74.22130000
C      -48.08090000     -33.04390000     -70.85030000
H      -47.34340000     -33.05360000     -71.66220000
H      -48.99620000     -32.43430000     -71.21000000
C      -45.81570000     -31.28780000     -73.10310000
H      -46.22010000     -32.23760000     -72.74460000
H      -46.59650000     -30.72250000     -73.67930000
C      -45.34080000     -30.47290000     -71.86000000
H      -44.76070000     -29.58610000     -72.11070000
H      -46.17120000     -30.10290000     -71.29280000
C      -47.46160000     -32.30660000     -69.65700000
H      -48.08910000     -32.45820000     -68.77460000
H      -47.44640000     -31.21140000     -69.95970000
C      -46.00660000     -32.80430000     -69.35590000
C      -45.74630000     -33.87860000     -68.58530000
C      -44.82610000     -32.25500000     -69.97790000
H      -46.61000000     -34.41540000     -68.10320000
C      -43.73550000     -33.00650000     -69.52350000
C      -44.39150000     -31.29320000     -70.98930000
C      -43.03850000     -31.32990000     -71.27890000
S      -43.98730000     -34.34150000     -68.44780000
S      -42.21630000     -32.44880000     -70.06370000
H      -42.46710000     -30.53850000     -71.76880000
