40
Properties=species:S:1:pos:R:3 #=T CELL(abcABC):=T 1.889726e+02=T 90.00000=T Traj:=T positionsangstrom=T Step:=T 0=T Bead:=T pbc="F F F"
C      -49.48290000     -34.87710000     -71.72840000
C      -48.66210000     -33.78620000     -71.90430000
C      -47.70170000     -33.82460000     -72.91240000
C      -47.64380000     -34.88810000     -73.76220000
C      -48.47760000     -36.03380000     -73.56500000
C      -49.30410000     -36.05650000     -72.46850000
H      -50.25450000     -34.78880000     -71.02770000
H      -46.92340000     -33.07360000     -73.13840000
H      -48.44200000     -36.90050000     -74.29820000
H      -49.85730000     -36.96470000     -72.24180000
C      -46.55030000     -35.05490000     -74.80730000
H      -46.93530000     -35.02190000     -75.82780000
H      -46.16660000     -36.10820000     -74.69070000
C      -48.95240000     -32.61160000     -70.99160000
H      -50.00520000     -32.31430000     -71.22330000
H      -48.85720000     -32.81800000     -69.90120000
S      -45.08410000     -33.96160000     -74.67100000
S      -48.07410000     -31.04170000     -71.24850000
C      -44.32610000     -34.32570000     -72.97180000
H      -45.02220000     -34.34020000     -72.15470000
H      -43.79380000     -35.28470000     -73.12360000
C      -46.73370000     -31.26880000     -69.96670000
H      -47.19590000     -31.53740000     -68.98410000
H      -46.08000000     -30.38040000     -69.78280000
C      -45.78800000     -32.36620000     -70.48210000
H      -46.36100000     -33.20850000     -70.82490000
H      -45.42340000     -32.01470000     -71.46410000
C      -43.29830000     -33.20740000     -72.81660000
H      -43.76870000     -32.28840000     -73.04670000
H      -42.44990000     -33.25840000     -73.54140000
C      -42.57460000     -33.13900000     -71.42010000
C      -41.21500000     -33.31970000     -71.27920000
C      -43.28600000     -33.03390000     -70.10090000
H      -40.40180000     -33.46500000     -72.05310000
C      -42.38450000     -33.24950000     -69.07080000
C      -44.60210000     -32.70310000     -69.66090000
C      -44.63820000     -32.57480000     -68.21750000
S      -40.66860000     -33.46800000     -69.62040000
S      -43.05900000     -32.84620000     -67.51750000
H      -45.48350000     -32.42520000     -67.54670000
