40
Properties=species:S:1:pos:R:3 #=T CELL(abcABC):=T 1.889726e+02=T 90.00000=T Traj:=T positionsangstrom=T Step:=T 0=T Bead:=T pbc="F F F"
C      -44.51330000     -35.06200000     -73.16350000
C      -45.41870000     -34.18080000     -73.69660000
C      -46.78320000     -34.33080000     -73.33460000
C      -47.18290000     -35.10260000     -72.22430000
C      -46.22550000     -35.93000000     -71.65590000
C      -44.87430000     -35.96280000     -72.18100000
H      -43.45440000     -35.07430000     -73.43320000
H      -47.62360000     -33.69770000     -73.82140000
H      -46.40090000     -36.65530000     -70.76890000
H      -44.21810000     -36.60870000     -71.70300000
C      -48.59360000     -35.03770000     -71.69800000
H      -49.05570000     -35.96420000     -71.35840000
H      -49.41470000     -34.71680000     -72.33990000
C      -45.04510000     -33.25160000     -74.88590000
H      -44.28110000     -33.68620000     -75.49440000
H      -45.96830000     -33.11710000     -75.42090000
S      -48.66140000     -34.06790000     -70.14180000
S      -44.18950000     -31.67020000     -74.26180000
C      -48.03890000     -32.42840000     -70.60490000
H      -47.38360000     -32.46180000     -71.46480000
H      -48.91260000     -31.67670000     -70.76680000
C      -45.39050000     -30.92100000     -72.93400000
H      -46.14370000     -31.66360000     -72.88550000
H      -45.84100000     -30.09130000     -73.52640000
C      -44.61630000     -30.47390000     -71.68260000
H      -43.97420000     -29.56900000     -71.81540000
H      -45.35040000     -30.14470000     -70.89670000
C      -47.14420000     -31.92660000     -69.47960000
H      -47.66830000     -32.07740000     -68.45210000
H      -46.89730000     -30.84320000     -69.74540000
C      -45.81810000     -32.74390000     -69.43780000
C      -45.75080000     -33.85850000     -68.53680000
C      -44.51350000     -32.52060000     -69.98930000
H      -46.52180000     -34.26930000     -67.92380000
C      -43.56070000     -33.42410000     -69.63380000
C      -43.90840000     -31.61730000     -70.96680000
C      -42.58830000     -31.89180000     -71.22840000
S      -44.18440000     -34.68270000     -68.52570000
S      -42.03650000     -33.40930000     -70.45820000
H      -42.15800000     -31.34830000     -71.99830000
