40
Properties=species:S:1:pos:R:3 #=T CELL(abcABC):=T 1.889726e+02=T 90.00000=T Traj:=T positionsangstrom=T Step:=T 0=T Bead:=T pbc="F F F"
C      -43.94200000     -34.77010000     -73.12800000
C      -45.13140000     -34.27830000     -73.77120000
C      -46.36240000     -34.71580000     -73.31830000
C      -46.48800000     -35.55870000     -72.22020000
C      -45.35380000     -36.14220000     -71.63560000
C      -44.13660000     -35.69780000     -72.08200000
H      -42.96700000     -34.48180000     -73.38430000
H      -47.28290000     -34.23580000     -73.76920000
H      -45.46020000     -36.78370000     -70.74780000
H      -43.20040000     -35.90590000     -71.54570000
C      -47.85010000     -35.92930000     -71.76760000
H      -47.80050000     -36.92980000     -71.35340000
H      -48.57510000     -35.86280000     -72.66140000
C      -44.97150000     -33.29160000     -74.88090000
H      -44.22590000     -33.54410000     -75.61070000
H      -45.90290000     -33.20740000     -75.46720000
S      -48.65550000     -34.84340000     -70.36770000
S      -44.32220000     -31.71110000     -74.26380000
C      -48.20080000     -33.14420000     -70.91110000
H      -47.62370000     -33.17410000     -71.79540000
H      -49.10550000     -32.73870000     -71.22940000
C      -45.82780000     -31.23860000     -73.14020000
H      -46.33370000     -32.16070000     -72.83660000
H      -46.54750000     -30.63380000     -73.73280000
C      -45.41540000     -30.44850000     -71.88580000
H      -44.89180000     -29.51510000     -72.18450000
H      -46.43790000     -30.22090000     -71.42720000
C      -47.54270000     -32.42920000     -69.69420000
H      -48.04700000     -32.72320000     -68.79220000
H      -47.59690000     -31.34740000     -69.84250000
C      -46.04250000     -32.92420000     -69.43850000
C      -45.76650000     -33.89980000     -68.53570000
C      -44.86650000     -32.37310000     -70.01600000
H      -46.49850000     -34.53030000     -68.05650000
C      -43.70760000     -33.01190000     -69.53480000
C      -44.51740000     -31.29070000     -70.98130000
C      -43.19140000     -31.00830000     -70.91290000
S      -44.10230000     -34.30620000     -68.31740000
S      -42.23720000     -32.26900000     -70.17740000
H      -42.72770000     -30.22590000     -71.48640000
