40
Properties=species:S:1:pos:R:3 #=T CELL(abcABC):=T 1.889726e+02=T 90.00000=T Traj:=T positionsangstrom=T Step:=T 0=T Bead:=T pbc="F F F"
C      -44.37760000     -34.88670000     -73.28400000
C      -45.48240000     -34.17810000     -73.81330000
C      -46.74450000     -34.29080000     -73.22430000
C      -47.02180000     -35.17510000     -72.23250000
C      -45.94280000     -36.00470000     -71.73780000
C      -44.67390000     -35.83440000     -72.29910000
H      -43.37080000     -34.85350000     -73.76630000
H      -47.66040000     -33.79030000     -73.60190000
H      -46.11690000     -36.79760000     -71.00090000
H      -43.98090000     -36.59300000     -71.87750000
C      -48.41310000     -35.33230000     -71.70720000
H      -48.53970000     -36.35040000     -71.32140000
H      -49.07750000     -34.99490000     -72.51020000
C      -45.23570000     -33.16750000     -74.93700000
H      -44.51520000     -33.41530000     -75.66830000
H      -46.15250000     -32.86880000     -75.52130000
S      -48.78470000     -34.24460000     -70.24690000
S      -44.27180000     -31.65250000     -74.21460000
C      -48.01680000     -32.59680000     -70.60700000
H      -47.41540000     -32.61130000     -71.52740000
H      -48.80430000     -31.90460000     -70.79430000
C      -45.51470000     -31.08760000     -72.90780000
H      -46.13210000     -31.86190000     -72.44080000
H      -46.20560000     -30.34900000     -73.37250000
C      -44.74350000     -30.49220000     -71.71950000
H      -44.12390000     -29.70180000     -72.09700000
H      -45.42240000     -30.04730000     -71.00460000
C      -47.07530000     -31.95610000     -69.55080000
H      -47.51070000     -31.85420000     -68.60160000
H      -46.90450000     -30.98080000     -69.81580000
C      -45.81050000     -32.77510000     -69.35720000
C      -45.74210000     -33.85470000     -68.47350000
C      -44.53200000     -32.58140000     -70.02300000
H      -46.54400000     -34.25650000     -67.88560000
C      -43.55790000     -33.44480000     -69.59360000
C      -43.98360000     -31.56560000     -70.97960000
C      -42.65920000     -31.74080000     -71.15310000
S      -44.21330000     -34.70410000     -68.51020000
S      -41.98480000     -33.09900000     -70.29290000
H      -42.20210000     -30.99140000     -71.73900000
