40
Properties=species:S:1:pos:R:3 #=T CELL(abcABC):=T 1.889726e+02=T 90.00000=T Traj:=T positionsangstrom=T Step:=T 0=T Bead:=T pbc="F F F"
C      -47.03250000     -29.90510000     -71.84030000
C      -47.62320000     -31.09650000     -71.43760000
C      -47.85010000     -32.05210000     -72.45190000
C      -47.50170000     -31.82880000     -73.80070000
C      -46.80410000     -30.65950000     -74.11210000
C      -46.65800000     -29.64310000     -73.14300000
H      -46.78440000     -29.14860000     -71.12970000
H      -48.51070000     -32.88600000     -72.29740000
H      -46.46350000     -30.36660000     -75.10270000
H      -46.27590000     -28.65910000     -73.40710000
C      -47.68660000     -32.89400000     -74.83560000
H      -46.95040000     -32.70630000     -75.59290000
H      -48.71320000     -32.86290000     -75.30870000
C      -48.18720000     -31.18350000     -69.93600000
H      -48.92830000     -30.45390000     -69.73050000
H      -48.75520000     -32.10240000     -69.85330000
S      -47.47400000     -34.65780000     -74.35360000
S      -46.80320000     -31.01590000     -68.72430000
C      -45.73240000     -34.80340000     -73.80170000
H      -45.22080000     -35.68620000     -74.16250000
H      -45.08380000     -34.05470000     -74.17580000
C      -45.55580000     -32.14720000     -69.46610000
H      -44.52380000     -31.75240000     -69.46860000
H      -45.68090000     -32.00770000     -70.56870000
C      -45.66980000     -33.50840000     -68.88590000
H      -45.79640000     -33.36190000     -67.80350000
H      -46.58060000     -34.06050000     -69.15590000
C      -45.59210000     -34.75170000     -72.25050000
H      -46.21260000     -35.57930000     -71.71880000
H      -45.83150000     -33.77570000     -71.89970000
C      -44.15360000     -34.97850000     -71.71840000
C      -43.22290000     -35.63580000     -72.47550000
C      -43.72510000     -34.81660000     -70.37960000
H      -43.23490000     -35.63660000     -73.55130000
C      -42.42630000     -35.29510000     -70.17850000
C      -44.28010000     -34.20670000     -69.15810000
C      -43.38460000     -34.25130000     -68.07130000
S      -41.70390000     -35.89460000     -71.66580000
S      -41.86470000     -35.03100000     -68.47260000
H      -43.54690000     -33.96700000     -67.07640000
