40
Properties=species:S:1:pos:R:3 #=T CELL(abcABC):=T 1.889726e+02=T 90.00000=T Traj:=T positionsangstrom=T Step:=T 0=T Bead:=T pbc="F F F"
C      -47.74930000     -29.99730000     -73.02740000
C      -47.96520000     -31.07710000     -72.18660000
C      -47.70470000     -32.38590000     -72.61030000
C      -47.38840000     -32.64860000     -73.92560000
C      -47.09000000     -31.57440000     -74.78850000
C      -47.21810000     -30.28210000     -74.32750000
H      -47.88160000     -28.94540000     -72.76250000
H      -47.90720000     -33.24880000     -72.02910000
H      -46.98600000     -31.51790000     -75.94680000
H      -47.06650000     -29.43640000     -74.99160000
C      -47.39750000     -34.06130000     -74.48030000
H      -46.46230000     -34.30400000     -74.98120000
H      -48.12660000     -34.17050000     -75.27430000
C      -48.44600000     -30.89630000     -70.74960000
H      -49.13640000     -30.00480000     -70.61720000
H      -48.92770000     -31.88180000     -70.51430000
S      -47.69440000     -35.54400000     -73.41740000
S      -47.01280000     -30.65350000     -69.51700000
C      -46.04770000     -35.94180000     -72.66790000
H      -46.21280000     -36.88350000     -72.20000000
H      -45.27240000     -36.04500000     -73.37170000
C      -45.76660000     -31.93410000     -70.08370000
H      -44.84480000     -31.34800000     -70.40720000
H      -46.13880000     -32.44600000     -70.98220000
C      -45.42050000     -32.88180000     -68.90730000
H      -45.39830000     -32.37800000     -67.90840000
H      -46.27190000     -33.61630000     -68.74350000
C      -45.54260000     -34.97360000     -71.63510000
H      -46.18250000     -34.92590000     -70.79520000
H      -45.59810000     -33.98630000     -72.08870000
C      -44.04410000     -35.22120000     -71.09530000
C      -43.15380000     -36.10420000     -71.64160000
C      -43.45190000     -34.38770000     -70.09370000
H      -43.26870000     -36.91010000     -72.35370000
C      -42.10190000     -34.62240000     -69.92490000
C      -44.01300000     -33.47080000     -69.13020000
C      -43.02340000     -33.04850000     -68.29250000
S      -41.49790000     -35.90040000     -71.03150000
S      -41.42640000     -33.64170000     -68.59390000
H      -43.00420000     -32.30000000     -67.55500000
