40
Properties=species:S:1:pos:R:3 #=T CELL(abcABC):=T 1.889726e+02=T 90.00000=T Traj:=T positionsangstrom=T Step:=T 0=T Bead:=T pbc="F F F"
C      -44.59200000     -33.73100000     -67.27330000
C      -44.08820000     -34.67570000     -68.16560000
C      -44.93430000     -35.55010000     -68.87880000
C      -46.34100000     -35.32610000     -68.76640000
C      -46.81290000     -34.38830000     -67.81830000
C      -45.97120000     -33.62740000     -67.01730000
H      -43.92320000     -33.09980000     -66.81010000
H      -44.45970000     -36.33360000     -69.44550000
H      -47.93780000     -34.26240000     -67.66650000
H      -46.37000000     -32.83050000     -66.38900000
C      -47.34640000     -36.08520000     -69.64120000
H      -47.90750000     -36.72220000     -68.91270000
H      -46.83700000     -36.63050000     -70.50130000
C      -42.58810000     -34.67040000     -68.30820000
H      -42.11590000     -33.83110000     -67.84500000
H      -42.17390000     -35.61160000     -67.88680000
S      -48.62910000     -34.95250000     -70.25030000
S      -41.91670000     -34.73270000     -70.11930000
C      -47.89400000     -33.96490000     -71.60230000
H      -47.50650000     -34.55640000     -72.42170000
H      -48.68430000     -33.40100000     -72.14280000
C      -43.06980000     -33.55490000     -70.85680000
H      -42.45530000     -32.60040000     -70.97120000
H      -43.97320000     -33.38480000     -70.29390000
C      -43.46130000     -34.17160000     -72.32530000
H      -42.51560000     -34.44220000     -72.89070000
H      -44.08140000     -35.01530000     -72.16050000
C      -46.68720000     -33.01150000     -71.26230000
H      -45.70860000     -33.57370000     -71.08000000
H      -46.88420000     -32.50540000     -70.27120000
C      -46.37280000     -32.06600000     -72.33720000
C      -47.21660000     -31.09890000     -72.77130000
C      -45.17490000     -32.19460000     -73.16720000
H      -48.12470000     -30.77620000     -72.29040000
C      -45.33180000     -31.34910000     -74.27670000
C      -44.07050000     -33.09620000     -73.29520000
C      -43.41410000     -32.85460000     -74.46290000
S      -46.68360000     -30.26890000     -74.18710000
S      -44.10290000     -31.49000000     -75.40040000
H      -42.49750000     -33.36840000     -74.85970000
