40
Properties=species:S:1:pos:R:3 #=T CELL(abcABC):=T 1.889726e+02=T 90.00000=T Traj:=T positionsangstrom=T Step:=T 0=T Bead:=T pbc="F F F"
C      -46.63320000     -30.72260000     -72.84210000
C      -47.53050000     -31.47660000     -72.10120000
C      -48.00860000     -32.69210000     -72.58060000
C      -47.55490000     -33.14610000     -73.86960000
C      -46.59510000     -32.39220000     -74.54520000
C      -46.04570000     -31.24480000     -73.97360000
H      -46.20430000     -29.78540000     -72.41320000
H      -48.73520000     -33.29460000     -72.02180000
H      -46.41610000     -32.72030000     -75.59870000
H      -45.31350000     -30.73050000     -74.57950000
C      -48.09390000     -34.35810000     -74.52430000
H      -47.85570000     -34.36040000     -75.61690000
H      -49.19660000     -34.44610000     -74.38970000
C      -48.24230000     -31.02770000     -70.87820000
H      -48.94230000     -30.25460000     -71.14520000
H      -48.81880000     -31.83250000     -70.42740000
S      -47.48790000     -35.97830000     -73.64660000
S      -47.05600000     -30.24340000     -69.71080000
C      -45.71290000     -35.57320000     -73.16780000
H      -45.21480000     -36.55340000     -73.04830000
H      -45.23430000     -34.97620000     -73.99600000
C      -45.57050000     -31.30810000     -69.69700000
H      -45.02060000     -30.80300000     -68.89680000
H      -44.98730000     -31.22240000     -70.58880000
C      -45.79480000     -32.77500000     -69.38640000
H      -46.41280000     -32.96900000     -68.51510000
H      -46.36610000     -33.25320000     -70.22430000
C      -45.48930000     -34.84580000     -71.84930000
H      -46.11470000     -35.36910000     -71.09060000
H      -45.83140000     -33.79390000     -71.91800000
C      -44.06470000     -34.77880000     -71.38290000
C      -43.03630000     -35.58190000     -71.80540000
C      -43.73770000     -34.23500000     -70.07820000
H      -43.04140000     -36.21920000     -72.63060000
C      -42.34690000     -34.43810000     -69.75180000
C      -44.43970000     -33.36180000     -69.15370000
C      -43.64150000     -32.98650000     -68.09920000
S      -41.51610000     -35.41260000     -70.88080000
S      -41.97220000     -33.54730000     -68.25140000
H      -43.98230000     -32.41330000     -67.24440000
