40
Properties=species:S:1:pos:R:3 #=T CELL(abcABC):=T 1.889726e+02=T 90.00000=T Traj:=T positionsangstrom=T Step:=T 0=T Bead:=T pbc="F F F"
C      -45.48080000     -34.14040000     -74.04220000
C      -45.54520000     -32.74700000     -73.91630000
C      -46.61930000     -32.12540000     -73.31860000
C      -47.68420000     -32.90360000     -72.77070000
C      -47.67720000     -34.26090000     -72.88460000
C      -46.57610000     -34.86520000     -73.58450000
H      -44.64840000     -34.66610000     -74.65430000
H      -46.60020000     -31.05460000     -73.31100000
H      -48.50160000     -34.90890000     -72.59520000
H      -46.49100000     -36.00930000     -73.63280000
C      -48.78680000     -32.15320000     -72.09140000
H      -49.63410000     -32.69350000     -72.08140000
H      -48.83410000     -31.12690000     -72.45310000
C      -44.42370000     -31.85270000     -74.44140000
H      -44.18570000     -32.11510000     -75.57400000
H      -44.85920000     -30.84070000     -74.48180000
S      -48.36060000     -32.13580000     -70.24720000
S      -42.87630000     -31.87980000     -73.44160000
C      -46.77350000     -31.26840000     -69.91920000
H      -46.15140000     -31.40640000     -70.81360000
H      -46.99700000     -30.19520000     -69.77020000
C      -43.40780000     -31.04840000     -71.84390000
H      -44.43460000     -30.88230000     -71.92120000
H      -42.90340000     -30.10210000     -71.79280000
C      -42.92410000     -31.81940000     -70.56810000
H      -41.82510000     -31.66440000     -70.42040000
H      -43.23240000     -31.26700000     -69.66580000
C      -45.97110000     -31.94840000     -68.77430000
H      -46.50420000     -31.89500000     -67.78140000
H      -45.10770000     -31.38060000     -68.63440000
C      -45.58180000     -33.39260000     -69.14450000
C      -46.41020000     -34.38750000     -68.76700000
C      -44.38650000     -33.91600000     -69.83590000
H      -47.34370000     -34.29780000     -68.27550000
C      -44.39700000     -35.29270000     -69.86960000
C      -43.17740000     -33.33800000     -70.45960000
C      -42.29750000     -34.33170000     -70.86650000
S      -45.89300000     -35.97070000     -69.30260000
S      -43.00310000     -36.07440000     -70.63810000
H      -41.25040000     -34.26510000     -71.06420000
