40
Properties=species:S:1:pos:R:3 #=T CELL(abcABC):=T 1.889726e+02=T 90.00000=T Traj:=T positionsangstrom=T Step:=T 0=T Bead:=T pbc="F F F"
C      -43.09850000     -35.81910000     -69.94770000
C      -44.34030000     -36.49160000     -70.36350000
C      -44.68890000     -36.52950000     -71.74480000
C      -43.83020000     -36.00070000     -72.69890000
C      -42.60230000     -35.37500000     -72.33110000
C      -42.25190000     -35.38110000     -70.97460000
H      -42.73620000     -35.73220000     -68.95280000
H      -45.64320000     -36.91340000     -71.92480000
H      -41.96100000     -34.77240000     -73.07000000
H      -41.27930000     -34.96680000     -70.82640000
C      -44.06800000     -36.00360000     -74.19640000
H      -44.08490000     -36.97780000     -74.59030000
H      -43.26840000     -35.43960000     -74.63800000
C      -45.34000000     -36.81110000     -69.34410000
H      -45.67510000     -37.81490000     -69.43090000
H      -44.91230000     -36.75410000     -68.36810000
S      -45.55340000     -35.20110000     -74.80490000
S      -46.92920000     -35.76220000     -69.26550000
C      -45.28930000     -33.48740000     -74.17510000
H      -44.30510000     -33.24110000     -74.48620000
H      -45.89410000     -32.81350000     -74.79100000
C      -46.29490000     -34.05260000     -69.23730000
H      -45.51100000     -34.02040000     -70.03510000
H      -45.81260000     -33.81170000     -68.32300000
C      -47.41230000     -33.17840000     -69.62270000
H      -47.93030000     -33.63970000     -70.48840000
H      -48.12640000     -33.22300000     -68.79780000
C      -45.48130000     -33.40540000     -72.68260000
H      -44.63440000     -33.98480000     -72.20150000
H      -46.43900000     -33.82990000     -72.30820000
C      -45.50590000     -31.95210000     -72.12130000
C      -44.71070000     -31.01980000     -72.79390000
C      -46.04000000     -31.36420000     -70.90760000
H      -44.24750000     -31.23490000     -73.73280000
C      -45.60430000     -30.00450000     -70.71550000
C      -46.87790000     -31.76240000     -69.87200000
C      -46.98720000     -30.80340000     -68.91500000
S      -44.57590000     -29.46050000     -72.05180000
S      -46.25350000     -29.29170000     -69.30010000
H      -47.61780000     -30.80750000     -67.99600000
