40
Properties=species:S:1:pos:R:3 #=T CELL(abcABC):=T 1.889726e+02=T 90.00000=T Traj:=T positionsangstrom=T Step:=T 0=T Bead:=T pbc="F F F"
C      -42.95620000     -35.97390000     -70.11710000
C      -44.21190000     -36.48320000     -70.28850000
C      -44.65970000     -36.81250000     -71.60290000
C      -43.81220000     -36.52740000     -72.69250000
C      -42.48820000     -36.02120000     -72.47810000
C      -42.06790000     -35.83290000     -71.15990000
H      -42.60740000     -35.72790000     -69.02370000
H      -45.67170000     -37.12100000     -71.82740000
H      -41.99060000     -35.78520000     -73.39320000
H      -41.06400000     -35.51390000     -70.93310000
C      -44.37700000     -36.48070000     -74.07300000
H      -44.69800000     -37.50280000     -74.42180000
H      -43.59100000     -36.07850000     -74.74240000
C      -45.24350000     -36.69420000     -69.20820000
H      -45.52760000     -37.81830000     -69.16860000
H      -44.89590000     -36.38470000     -68.20640000
S      -45.73750000     -35.30440000     -74.37520000
S      -46.70700000     -35.64680000     -69.61880000
C      -45.04620000     -33.65210000     -73.90570000
H      -43.96350000     -33.66790000     -74.03870000
H      -45.46560000     -32.95260000     -74.70570000
C      -46.21820000     -33.91080000     -69.28750000
H      -45.34430000     -33.65260000     -69.90100000
H      -45.98420000     -33.79310000     -68.27200000
C      -47.48240000     -33.03370000     -69.75410000
H      -47.81010000     -33.33300000     -70.75980000
H      -48.31950000     -33.27500000     -69.03440000
C      -45.74230000     -33.18150000     -72.57020000
H      -45.46180000     -33.84610000     -71.73530000
H      -46.82800000     -33.24250000     -72.75570000
C      -45.38440000     -31.76880000     -72.11480000
C      -44.64930000     -30.87470000     -72.82710000
C      -46.05640000     -31.12510000     -70.95840000
H      -43.93730000     -31.12510000     -73.64210000
C      -45.65980000     -29.81670000     -70.79320000
C      -46.98870000     -31.55530000     -69.85160000
C      -47.30560000     -30.56720000     -68.97690000
S      -44.57350000     -29.24390000     -72.10840000
S      -46.28950000     -29.14800000     -69.32140000
H      -47.94180000     -30.63270000     -68.16720000
