40
Properties=species:S:1:pos:R:3 #=T CELL(abcABC):=T 1.889726e+02=T 90.00000=T Traj:=T positionsangstrom=T Step:=T 0=T Bead:=T pbc="F F F"
C      -43.19630000     -35.87740000     -70.11350000
C      -44.33580000     -36.58160000     -70.57440000
C      -44.64040000     -36.72110000     -71.93120000
C      -43.83870000     -36.04290000     -72.90550000
C      -42.63410000     -35.49520000     -72.45550000
C      -42.31420000     -35.36760000     -71.08830000
H      -43.02380000     -35.75840000     -69.03970000
H      -45.60240000     -37.13610000     -72.09540000
H      -42.04850000     -34.97550000     -73.19630000
H      -41.35400000     -34.86030000     -70.90070000
C      -44.20830000     -36.09030000     -74.41860000
H      -44.74640000     -36.93900000     -74.70450000
H      -43.36720000     -35.98880000     -75.11920000
C      -45.23100000     -36.95260000     -69.48460000
H      -45.54230000     -37.98610000     -69.41190000
H      -44.85240000     -36.69200000     -68.47920000
S      -45.47290000     -34.85190000     -75.00060000
S      -46.90130000     -35.99350000     -69.47840000
C      -45.20440000     -33.20450000     -74.14240000
H      -44.06410000     -33.01960000     -74.33180000
H      -45.82310000     -32.41490000     -74.67310000
C      -46.33780000     -34.22700000     -69.33090000
H      -45.36620000     -34.12180000     -69.78130000
H      -46.33490000     -33.96390000     -68.29440000
C      -47.39400000     -33.25730000     -69.98020000
H      -47.55710000     -33.40900000     -71.08520000
H      -48.32070000     -33.41090000     -69.42100000
C      -45.64340000     -33.18610000     -72.70140000
H      -45.21570000     -34.02320000     -72.10860000
H      -46.71610000     -33.35100000     -72.68240000
C      -45.40420000     -31.85560000     -72.01040000
C      -44.54980000     -30.87880000     -72.50920000
C      -46.03960000     -31.32930000     -70.81370000
H      -43.91100000     -30.98520000     -73.36790000
C      -45.60060000     -29.98650000     -70.45800000
C      -46.91470000     -31.87280000     -69.80340000
C      -47.21960000     -30.96260000     -68.77450000
S      -44.43950000     -29.33820000     -71.57800000
S      -46.34510000     -29.35350000     -68.99650000
H      -47.73550000     -31.28360000     -67.85980000
