40
Properties=species:S:1:pos:R:3 #=T CELL(abcABC):=T 1.889726e+02=T 90.00000=T Traj:=T positionsangstrom=T Step:=T 0=T Bead:=T pbc="F F F"
C      -43.16110000     -36.28420000     -69.52470000
C      -44.47330000     -36.50440000     -69.94200000
C      -44.85620000     -36.54040000     -71.27370000
C      -43.86070000     -36.34390000     -72.28320000
C      -42.57320000     -35.96840000     -71.87300000
C      -42.22590000     -36.00490000     -70.50820000
H      -42.99390000     -36.26050000     -68.41690000
H      -45.78660000     -36.87640000     -71.60710000
H      -41.76140000     -35.95720000     -72.61560000
H      -41.16390000     -35.76400000     -70.30420000
C      -44.21060000     -36.55990000     -73.72910000
H      -44.48230000     -37.60110000     -73.82100000
H      -43.15970000     -36.48790000     -74.20950000
C      -45.51170000     -36.63060000     -68.79550000
H      -45.82870000     -37.65820000     -68.64730000
H      -45.02360000     -36.39720000     -67.82030000
S      -45.42360000     -35.35400000     -74.56970000
S      -47.05590000     -35.62250000     -68.90580000
C      -44.91100000     -33.62190000     -74.15420000
H      -43.78480000     -33.40430000     -74.15620000
H      -45.30770000     -33.22190000     -75.02170000
C      -46.29350000     -33.95900000     -69.31610000
H      -45.51160000     -34.22680000     -69.97380000
H      -45.86400000     -33.62850000     -68.35720000
C      -47.33700000     -32.97030000     -69.87310000
H      -47.83300000     -33.44180000     -70.75030000
H      -48.15230000     -32.88600000     -69.12430000
C      -45.56840000     -33.10430000     -72.92310000
H      -45.10010000     -33.64080000     -72.07180000
H      -46.55960000     -33.37150000     -73.03080000
C      -45.39620000     -31.66650000     -72.63280000
C      -44.75620000     -30.71550000     -73.40660000
C      -45.97200000     -31.20770000     -71.35940000
H      -44.46820000     -30.70770000     -74.48020000
C      -45.69330000     -29.80950000     -71.24740000
C      -46.69450000     -31.70690000     -70.16920000
C      -46.76480000     -30.76730000     -69.18630000
S      -44.77450000     -29.18150000     -72.53430000
S      -46.11940000     -29.13630000     -69.65150000
H      -47.30120000     -30.83200000     -68.27640000
