40
Properties=species:S:1:pos:R:3 #=T CELL(abcABC):=T 1.889726e+02=T 90.00000=T Traj:=T positionsangstrom=T Step:=T 0=T Bead:=T pbc="F F F"
C      -45.63860000     -34.60140000     -73.53090000
C      -45.57600000     -33.17820000     -73.75030000
C      -46.57780000     -32.39500000     -73.21880000
C      -47.59660000     -32.85500000     -72.45890000
C      -47.69090000     -34.23870000     -72.21530000
C      -46.75810000     -35.10970000     -72.80650000
H      -44.91120000     -35.20670000     -73.90210000
H      -46.49660000     -31.34640000     -73.52710000
H      -48.31070000     -34.52200000     -71.39810000
H      -46.75430000     -36.20060000     -72.58380000
C      -48.57610000     -31.93200000     -71.81840000
H      -49.44880000     -32.45790000     -71.74200000
H      -48.55620000     -30.99750000     -72.36270000
C      -44.51830000     -32.66530000     -74.66430000
H      -44.32190000     -33.45840000     -75.37590000
H      -44.78520000     -31.78220000     -75.27860000
S      -48.16380000     -31.42280000     -70.09100000
S      -42.87720000     -32.37460000     -73.86080000
C      -46.38450000     -30.75020000     -70.11400000
H      -46.09200000     -30.72220000     -71.19950000
H      -46.34650000     -29.66020000     -69.89640000
C      -43.20030000     -31.47460000     -72.28060000
H      -44.27930000     -31.24870000     -72.25380000
H      -42.77140000     -30.43840000     -72.48440000
C      -42.63560000     -32.15510000     -71.05350000
H      -41.55050000     -32.21100000     -71.19870000
H      -42.77410000     -31.48380000     -70.25140000
C      -45.49430000     -31.62380000     -69.17290000
H      -45.63680000     -31.37950000     -68.10490000
H      -44.45800000     -31.25180000     -69.33620000
C      -45.57030000     -33.10460000     -69.37340000
C      -46.56910000     -33.89890000     -68.91100000
C      -44.42390000     -33.79460000     -69.95960000
H      -47.51620000     -33.54240000     -68.65010000
C      -44.57650000     -35.18920000     -69.77600000
C      -43.22370000     -33.45500000     -70.68960000
C      -42.48060000     -34.57330000     -71.01880000
S      -46.11510000     -35.66430000     -69.12420000
S      -43.30360000     -36.09420000     -70.59260000
H      -41.59710000     -34.58740000     -71.53890000
