40
Properties=species:S:1:pos:R:3 #=T CELL(abcABC):=T 1.889726e+02=T 90.00000=T Traj:=T positionsangstrom=T Step:=T 0=T Bead:=T pbc="F F F"
C      -42.92800000     -36.23970000     -69.90190000
C      -44.33960000     -36.35000000     -70.16650000
C      -44.79360000     -36.42050000     -71.44230000
C      -43.89190000     -36.30900000     -72.56440000
C      -42.56610000     -36.11200000     -72.27490000
C      -42.05060000     -36.12630000     -70.96950000
H      -42.62770000     -36.18930000     -68.85630000
H      -45.84760000     -36.57150000     -71.62150000
H      -41.80510000     -36.03130000     -73.00820000
H      -41.09960000     -35.79270000     -70.79810000
C      -44.35580000     -36.65530000     -73.95300000
H      -44.97480000     -37.55650000     -74.07450000
H      -43.47700000     -36.70200000     -74.53310000
C      -45.25170000     -36.49250000     -68.95020000
H      -45.48760000     -37.50910000     -68.72900000
H      -44.73220000     -36.09610000     -68.09360000
S      -45.50810000     -35.38100000     -74.57790000
S      -46.86730000     -35.64060000     -69.01540000
C      -44.82330000     -33.71350000     -73.97630000
H      -43.80270000     -33.82090000     -73.66560000
H      -44.81190000     -32.99020000     -74.80530000
C      -46.26900000     -33.91520000     -69.20700000
H      -45.50830000     -33.94620000     -70.02270000
H      -45.91360000     -33.53540000     -68.27230000
C      -47.39320000     -32.98090000     -69.67440000
H      -47.90050000     -33.51530000     -70.48960000
H      -48.20170000     -32.82090000     -68.86720000
C      -45.69860000     -33.15030000     -72.74340000
H      -45.56380000     -33.86300000     -71.99230000
H      -46.76510000     -33.09900000     -73.05270000
C      -45.43850000     -31.74850000     -72.29590000
C      -44.70380000     -30.86260000     -73.09690000
C      -46.00530000     -31.16010000     -71.09710000
H      -44.39610000     -30.99280000     -74.14260000
C      -45.67190000     -29.82560000     -71.06470000
C      -46.91150000     -31.57730000     -69.99150000
C      -47.06660000     -30.60450000     -69.07180000
S      -44.73300000     -29.29620000     -72.40980000
S      -46.28690000     -29.04370000     -69.55100000
H      -47.66590000     -30.64570000     -68.15730000
