40
Properties=species:S:1:pos:R:3 #=T CELL(abcABC):=T 1.889726e+02=T 90.00000=T Traj:=T positionsangstrom=T Step:=T 0=T Bead:=T pbc="F F F"
C      -44.53480000     -33.93920000     -66.94520000
C      -44.02470000     -34.48610000     -68.10230000
C      -44.87390000     -35.24890000     -68.97380000
C      -46.25860000     -35.40220000     -68.72930000
C      -46.70660000     -34.82920000     -67.50760000
C      -45.89510000     -34.16320000     -66.60940000
H      -43.92240000     -33.42040000     -66.34920000
H      -44.42890000     -35.78690000     -69.80130000
H      -47.78510000     -34.97100000     -67.26500000
H      -46.32280000     -33.67490000     -65.70170000
C      -47.23040000     -36.06830000     -69.70670000
H      -47.76280000     -36.89620000     -69.13090000
H      -46.80490000     -36.62310000     -70.58550000
C      -42.56150000     -34.18870000     -68.40750000
H      -42.26420000     -33.13510000     -68.13710000
H      -41.93990000     -34.77870000     -67.71220000
S      -48.68470000     -35.10950000     -70.30950000
S      -41.90480000     -34.66440000     -70.10050000
C      -48.16120000     -34.00540000     -71.71780000
H      -47.68450000     -34.67350000     -72.40060000
H      -49.05150000     -33.63690000     -72.18220000
C      -42.69340000     -33.36800000     -71.10700000
H      -41.90860000     -32.75690000     -71.55260000
H      -43.33710000     -32.82590000     -70.43190000
C      -43.53500000     -33.93370000     -72.16320000
H      -43.00930000     -34.64340000     -72.82240000
H      -44.43950000     -34.47430000     -71.75600000
C      -46.97180000     -33.04230000     -71.32680000
H      -46.13660000     -33.60920000     -70.95320000
H      -47.26120000     -32.38300000     -70.52100000
C      -46.52420000     -32.11840000     -72.43610000
C      -47.45160000     -31.28850000     -73.06320000
C      -45.23370000     -32.17690000     -73.13820000
H      -48.43520000     -31.02730000     -72.64180000
C      -45.34850000     -31.36760000     -74.28070000
C      -43.98270000     -32.91350000     -73.16770000
C      -43.16700000     -32.53250000     -74.19840000
S      -46.80770000     -30.44400000     -74.44780000
S      -43.99890000     -31.37910000     -75.35030000
H      -42.16410000     -32.86410000     -74.59860000
