40
Properties=species:S:1:pos:R:3 #=T CELL(abcABC):=T 1.889726e+02=T 90.00000=T Traj:=T positionsangstrom=T Step:=T 0=T Bead:=T pbc="F F F"
C      -45.62860000     -34.53220000     -73.48040000
C      -45.65340000     -33.21070000     -73.86080000
C      -46.61890000     -32.30290000     -73.37010000
C      -47.58570000     -32.77110000     -72.41570000
C      -47.58010000     -34.13640000     -72.13890000
C      -46.55860000     -35.03740000     -72.51190000
H      -44.70640000     -35.12830000     -73.76820000
H      -46.63350000     -31.27710000     -73.74820000
H      -48.39650000     -34.60740000     -71.52590000
H      -46.61080000     -36.06010000     -72.21060000
C      -48.61490000     -31.87530000     -71.80480000
H      -49.53960000     -32.46810000     -71.56800000
H      -48.93320000     -31.12400000     -72.50700000
C      -44.53350000     -32.74880000     -74.78480000
H      -44.32870000     -33.50200000     -75.51700000
H      -44.89090000     -31.83930000     -75.32420000
S      -48.16920000     -31.16510000     -70.16650000
S      -42.84720000     -32.47480000     -73.95100000
C      -46.34910000     -30.79750000     -70.20470000
H      -46.04590000     -30.83900000     -71.25540000
H      -46.34900000     -29.68490000     -69.88150000
C      -43.39880000     -31.63800000     -72.33850000
H      -44.53880000     -31.56780000     -72.21900000
H      -43.16110000     -30.54970000     -72.39950000
C      -42.65340000     -32.20040000     -71.05730000
H      -41.60900000     -32.41160000     -71.26990000
H      -42.75820000     -31.37010000     -70.35310000
C      -45.49620000     -31.62470000     -69.18670000
H      -45.85570000     -31.35500000     -68.13820000
H      -44.45870000     -31.28360000     -69.31400000
C      -45.48270000     -33.12210000     -69.29050000
C      -46.43090000     -33.90450000     -68.66570000
C      -44.43970000     -33.85570000     -69.92020000
H      -47.23400000     -33.75850000     -67.89790000
C      -44.61850000     -35.24490000     -69.84140000
C      -43.20310000     -33.53900000     -70.69260000
C      -42.56020000     -34.64110000     -71.12490000
S      -46.01770000     -35.68600000     -68.86790000
S      -43.42400000     -36.12860000     -70.74490000
H      -41.61720000     -34.64830000     -71.68240000
