40
Properties=species:S:1:pos:R:3 #=T CELL(abcABC):=T 1.889726e+02=T 90.00000=T Traj:=T positionsangstrom=T Step:=T 0=T Bead:=T pbc="F F F"
C      -45.67550000     -34.20450000     -73.84490000
C      -45.52370000     -32.81860000     -73.87120000
C      -46.53050000     -32.06830000     -73.22090000
C      -47.61860000     -32.57200000     -72.49630000
C      -47.67050000     -33.96770000     -72.36480000
C      -46.66000000     -34.75720000     -73.00740000
H      -44.97380000     -34.87310000     -74.30380000
H      -46.52260000     -30.98500000     -73.25760000
H      -48.48950000     -34.50100000     -71.83040000
H      -46.63170000     -35.84660000     -72.87860000
C      -48.57940000     -31.71080000     -71.73690000
H      -49.55190000     -32.18870000     -71.70620000
H      -48.60860000     -30.63690000     -72.05940000
C      -44.36140000     -32.19710000     -74.65990000
H      -44.26010000     -32.70040000     -75.60560000
H      -44.59320000     -31.07700000     -74.77910000
S      -47.99870000     -31.58490000     -69.93440000
S      -42.71450000     -32.28120000     -73.77320000
C      -46.31600000     -30.84920000     -69.78700000
H      -45.91300000     -30.62650000     -70.76820000
H      -46.45670000     -29.94570000     -69.31250000
C      -43.14740000     -31.67930000     -72.12040000
H      -44.24400000     -31.62100000     -72.00310000
H      -42.91980000     -30.52770000     -72.04860000
C      -42.48450000     -32.47580000     -70.97330000
H      -41.44180000     -32.67390000     -71.28900000
H      -42.40000000     -32.05180000     -69.97180000
C      -45.35640000     -31.67550000     -68.88680000
H      -45.58770000     -31.55040000     -67.78340000
H      -44.35310000     -31.24260000     -69.06170000
C      -45.40190000     -33.18740000     -69.24490000
C      -46.31630000     -34.02290000     -68.59330000
C      -44.46240000     -33.95470000     -70.06140000
H      -47.14120000     -33.69290000     -68.01830000
C      -44.87720000     -35.27250000     -70.12590000
C      -43.19310000     -33.77870000     -70.71200000
C      -42.70840000     -34.97030000     -71.16460000
S      -46.25200000     -35.69210000     -69.16820000
S      -43.74450000     -36.32850000     -70.85500000
H      -41.80820000     -35.14040000     -71.72430000
