40
Properties=species:S:1:pos:R:3 #=T CELL(abcABC):=T 1.889726e+02=T 90.00000=T Traj:=T positionsangstrom=T Step:=T 0=T Bead:=T pbc="F F F"
C      -45.48100000     -34.19990000     -73.69800000
C      -45.48990000     -32.79810000     -73.80870000
C      -46.49780000     -32.09810000     -73.13180000
C      -47.56740000     -32.67300000     -72.46400000
C      -47.57310000     -34.07010000     -72.36810000
C      -46.54730000     -34.81920000     -73.03580000
H      -44.76550000     -34.85730000     -74.26390000
H      -46.47770000     -31.03300000     -73.25860000
H      -48.39930000     -34.60950000     -71.76470000
H      -46.64400000     -35.95850000     -72.99920000
C      -48.53560000     -31.72460000     -71.71810000
H      -49.55050000     -32.12880000     -71.82290000
H      -48.61230000     -30.75910000     -72.18750000
C      -44.38830000     -32.05570000     -74.63520000
H      -44.34190000     -32.46330000     -75.66860000
H      -44.59740000     -31.02620000     -74.82590000
S      -48.11610000     -31.56780000     -69.88980000
S      -42.78960000     -32.32790000     -73.78470000
C      -46.34380000     -30.99480000     -70.15380000
H      -45.98540000     -31.37280000     -71.16720000
H      -46.38070000     -29.89260000     -70.03060000
C      -42.95410000     -31.46030000     -72.13400000
H      -43.97660000     -31.19530000     -72.08610000
H      -42.27030000     -30.60400000     -72.07310000
C      -42.66700000     -32.42660000     -70.91840000
H      -41.59420000     -32.59280000     -70.92110000
H      -42.90300000     -31.78380000     -70.10500000
C      -45.50150000     -31.72770000     -69.09170000
H      -45.88390000     -31.41010000     -68.11420000
H      -44.49470000     -31.31180000     -69.18510000
C      -45.42940000     -33.19800000     -69.27150000
C      -46.41680000     -33.94270000     -68.66570000
C      -44.43470000     -34.01770000     -70.04080000
H      -47.11230000     -33.49110000     -67.90760000
C      -44.77110000     -35.38090000     -69.89820000
C      -43.27160000     -33.74710000     -70.84340000
C      -42.79430000     -34.84820000     -71.47320000
S      -46.25830000     -35.67240000     -68.97710000
S      -43.62610000     -36.32650000     -70.83480000
H      -41.95440000     -34.90140000     -72.09240000
