40
Properties=species:S:1:pos:R:3 #=T CELL(abcABC):=T 1.889726e+02=T 90.00000=T Traj:=T positionsangstrom=T Step:=T 0=T Bead:=T pbc="F F F"
C      -45.39970000     -34.17340000     -73.61560000
C      -45.52190000     -32.77620000     -73.82070000
C      -46.61660000     -32.12680000     -73.31470000
C      -47.57570000     -32.71840000     -72.47700000
C      -47.41060000     -34.07100000     -72.17270000
C      -46.46630000     -34.79760000     -72.90100000
H      -44.54200000     -34.70610000     -74.05890000
H      -46.81060000     -31.06010000     -73.56740000
H      -48.02810000     -34.58150000     -71.41100000
H      -46.38640000     -35.87550000     -72.62670000
C      -48.70070000     -31.97230000     -71.84960000
H      -49.56150000     -32.62610000     -71.62640000
H      -49.03650000     -31.11500000     -72.49240000
C      -44.40450000     -32.11670000     -74.65260000
H      -44.37410000     -32.64400000     -75.66770000
H      -44.55410000     -31.05680000     -74.72310000
S      -48.15250000     -31.42750000     -70.10420000
S      -42.76700000     -32.33900000     -73.79930000
C      -46.36490000     -30.96500000     -70.04960000
H      -45.90980000     -30.89920000     -71.00140000
H      -46.35110000     -29.90680000     -69.73500000
C      -43.06180000     -31.52460000     -72.14990000
H      -44.20450000     -31.28280000     -72.04790000
H      -42.65830000     -30.54570000     -72.06870000
C      -42.52270000     -32.38690000     -70.98510000
H      -41.45200000     -32.73310000     -71.09250000
H      -42.56970000     -31.86610000     -70.01970000
C      -45.51260000     -31.76200000     -69.04180000
H      -45.75670000     -31.50490000     -68.00740000
H      -44.49240000     -31.44460000     -69.19710000
C      -45.43310000     -33.24230000     -69.17300000
C      -46.31140000     -34.03450000     -68.46740000
C      -44.45060000     -33.96190000     -70.02530000
H      -46.99650000     -33.60160000     -67.68820000
C      -44.81130000     -35.30020000     -69.97870000
C      -43.30880000     -33.70780000     -70.84800000
C      -42.79270000     -34.85850000     -71.37700000
S      -46.08280000     -35.75390000     -68.81200000
S      -43.79520000     -36.21930000     -70.98460000
H      -42.00560000     -35.13520000     -72.01280000
