40
Properties=species:S:1:pos:R:3 #=T CELL(abcABC):=T 1.889726e+02=T 90.00000=T Traj:=T positionsangstrom=T Step:=T 0=T Bead:=T pbc="F F F"
C      -45.57930000     -34.65270000     -73.76820000
C      -45.44470000     -33.22950000     -73.96440000
C      -46.44360000     -32.39270000     -73.39700000
C      -47.36650000     -32.94210000     -72.51690000
C      -47.37130000     -34.32800000     -72.26910000
C      -46.54290000     -35.17990000     -72.92730000
H      -44.87230000     -35.33300000     -74.35830000
H      -46.41510000     -31.27240000     -73.37160000
H      -48.17080000     -34.77080000     -71.61980000
H      -46.59700000     -36.29650000     -72.91630000
C      -48.33450000     -32.09960000     -71.77850000
H      -49.34580000     -32.49900000     -71.88650000
H      -48.45330000     -31.09100000     -72.24080000
C      -44.26180000     -32.82960000     -74.81290000
H      -43.95630000     -33.68160000     -75.44830000
H      -44.52310000     -31.98450000     -75.44730000
S      -48.11970000     -31.75260000     -69.91980000
S      -42.80560000     -32.31270000     -73.76490000
C      -46.44160000     -30.93990000     -69.98760000
H      -46.01810000     -31.13960000     -70.94120000
H      -46.45610000     -29.86230000     -69.69180000
C      -43.44140000     -31.39290000     -72.26070000
H      -44.55230000     -31.42860000     -72.26080000
H      -43.15590000     -30.39330000     -72.33390000
C      -42.81210000     -32.08120000     -71.05380000
H      -41.72330000     -32.14970000     -71.20890000
H      -42.85000000     -31.47570000     -70.17280000
C      -45.48860000     -31.44020000     -68.91500000
H      -45.82280000     -31.23970000     -67.84520000
H      -44.56780000     -30.86400000     -69.04160000
C      -45.25030000     -32.94990000     -69.00090000
C      -46.24770000     -33.73840000     -68.48240000
C      -44.48820000     -33.73530000     -69.90860000
H      -47.01570000     -33.39270000     -67.77350000
C      -44.82980000     -35.08580000     -70.00820000
C      -43.36240000     -33.44530000     -70.80810000
C      -42.77510000     -34.56600000     -71.27890000
S      -46.16500000     -35.47080000     -68.91130000
S      -43.74670000     -35.97950000     -70.96440000
H      -42.13340000     -34.48780000     -72.08530000
