40
Properties=species:S:1:pos:R:3 #=T CELL(abcABC):=T 1.889726e+02=T 90.00000=T Traj:=T positionsangstrom=T Step:=T 0=T Bead:=T pbc="F F F"
C      -45.71300000     -34.13870000     -73.85340000
C      -45.44720000     -32.77610000     -73.84760000
C      -46.36210000     -31.95430000     -73.14310000
C      -47.40330000     -32.50280000     -72.36550000
C      -47.60430000     -33.91460000     -72.37460000
C      -46.80600000     -34.71150000     -73.15300000
H      -45.03100000     -34.79570000     -74.39890000
H      -46.27130000     -30.87000000     -73.23340000
H      -48.42640000     -34.35720000     -71.90940000
H      -47.04860000     -35.72760000     -73.16440000
C      -48.38140000     -31.57340000     -71.74550000
H      -49.37600000     -32.09490000     -71.64210000
H      -48.59600000     -30.67480000     -72.31950000
C      -44.25020000     -32.21520000     -74.52490000
H      -44.04760000     -32.77510000     -75.48620000
H      -44.42930000     -31.23030000     -74.93850000
S      -47.98960000     -31.35690000     -69.95820000
S      -42.69690000     -32.44800000     -73.51590000
C      -46.13190000     -30.90410000     -69.78290000
H      -45.71860000     -31.09790000     -70.71860000
H      -46.04380000     -29.86100000     -69.51610000
C      -42.99940000     -31.58430000     -71.98160000
H      -44.08960000     -31.36080000     -71.96600000
H      -42.49320000     -30.57830000     -71.88420000
C      -42.63470000     -32.45420000     -70.72820000
H      -41.59440000     -32.73950000     -70.73320000
H      -42.81920000     -31.83170000     -69.85630000
C      -45.46430000     -31.80020000     -68.84400000
H      -46.06830000     -31.82500000     -67.91380000
H      -44.39570000     -31.43240000     -68.58240000
C      -45.47590000     -33.30370000     -69.23270000
C      -46.48570000     -34.14320000     -68.69060000
C      -44.63100000     -34.04170000     -70.12370000
H      -47.23850000     -33.82710000     -68.01060000
C      -44.92990000     -35.39080000     -70.22510000
C      -43.34670000     -33.75440000     -70.71410000
C      -42.73740000     -34.86110000     -71.27040000
S      -46.35520000     -35.80370000     -69.28760000
S      -43.71330000     -36.33130000     -71.07980000
H      -41.71350000     -34.75690000     -71.83590000
