40
Properties=species:S:1:pos:R:3 #=T CELL(abcABC):=T 1.889726e+02=T 90.00000=T Traj:=T positionsangstrom=T Step:=T 0=T Bead:=T pbc="F F F"
C      -45.35550000     -33.98560000     -73.68450000
C      -44.97550000     -32.61400000     -73.52820000
C      -45.88130000     -31.63550000     -73.04980000
C      -47.20120000     -31.98190000     -72.68400000
C      -47.57500000     -33.32350000     -72.83960000
C      -46.69820000     -34.26160000     -73.42070000
H      -44.74220000     -34.78270000     -74.19280000
H      -45.54250000     -30.63600000     -72.95380000
H      -48.65180000     -33.59760000     -72.69370000
H      -47.00990000     -35.30340000     -73.52390000
C      -48.00650000     -30.97560000     -71.91390000
H      -49.07600000     -30.84810000     -72.23470000
H      -47.57850000     -30.04730000     -72.31840000
C      -43.64520000     -32.13950000     -74.03820000
H      -43.44480000     -32.41610000     -75.10010000
H      -43.58120000     -31.03520000     -74.31890000
S      -47.98660000     -31.07100000     -70.07090000
S      -42.12050000     -32.67230000     -73.09720000
C      -46.16610000     -30.94820000     -69.82480000
H      -45.72940000     -31.14240000     -70.84450000
H      -45.86930000     -29.96910000     -69.48400000
C      -42.59110000     -32.02680000     -71.44630000
H      -43.63120000     -31.66990000     -71.54930000
H      -41.98940000     -31.11790000     -71.27970000
C      -42.46630000     -33.07780000     -70.35880000
H      -41.45670000     -33.48720000     -70.23300000
H      -42.53250000     -32.49050000     -69.37250000
C      -45.53380000     -31.97320000     -68.88650000
H      -45.94000000     -31.82360000     -67.84690000
H      -44.48380000     -31.69120000     -68.78360000
C      -45.66680000     -33.44190000     -69.24810000
C      -46.85670000     -34.07730000     -69.02750000
C      -44.83920000     -34.28110000     -70.06490000
H      -47.63320000     -33.67340000     -68.33300000
C      -45.36680000     -35.50910000     -70.36120000
C      -43.47010000     -34.19980000     -70.51540000
C      -43.07550000     -35.43950000     -70.98960000
S      -47.02290000     -35.59950000     -69.85740000
S      -44.30250000     -36.66160000     -71.13690000
H      -42.03600000     -35.63330000     -71.40140000
