40
Properties=species:S:1:pos:R:3 #=T CELL(abcABC):=T 1.889726e+02=T 90.00000=T Traj:=T positionsangstrom=T Step:=T 0=T Bead:=T pbc="F F F"
C      -45.82440000     -34.16360000     -73.64650000
C      -45.39490000     -32.85130000     -73.83710000
C      -46.16030000     -31.80970000     -73.21640000
C      -47.29710000     -32.13500000     -72.50150000
C      -47.70690000     -33.43670000     -72.36170000
C      -46.91880000     -34.45810000     -72.86500000
H      -45.38480000     -35.07360000     -74.08600000
H      -45.80630000     -30.78930000     -73.28830000
H      -48.49130000     -33.57650000     -71.54540000
H      -47.19350000     -35.53110000     -72.72870000
C      -48.15520000     -31.13990000     -71.82840000
H      -49.18780000     -31.16820000     -72.11800000
H      -47.69090000     -30.14930000     -72.17920000
C      -44.19930000     -32.42320000     -74.60750000
H      -44.02380000     -33.07180000     -75.47420000
H      -44.29350000     -31.40650000     -75.00660000
S      -48.05630000     -31.36750000     -70.02090000
S      -42.57540000     -32.54250000     -73.55710000
C      -46.22190000     -31.11060000     -69.72410000
H      -45.76800000     -31.26360000     -70.74690000
H      -46.00690000     -30.10920000     -69.39240000
C      -43.10720000     -31.61260000     -71.99140000
H      -44.20040000     -31.53940000     -72.05200000
H      -42.54040000     -30.68790000     -72.10770000
C      -42.72230000     -32.28780000     -70.69880000
H      -41.62140000     -32.32430000     -70.54860000
H      -43.06160000     -31.68590000     -69.89390000
C      -45.64430000     -31.94960000     -68.68070000
H      -46.27150000     -31.90350000     -67.74770000
H      -44.72790000     -31.38970000     -68.29440000
C      -45.55020000     -33.47370000     -69.10930000
C      -46.58800000     -34.32790000     -68.73400000
C      -44.52630000     -34.16440000     -69.97230000
H      -47.44550000     -34.06640000     -68.01080000
C      -44.83970000     -35.51690000     -70.14150000
C      -43.29960000     -33.73570000     -70.67630000
C      -42.74210000     -34.81940000     -71.33030000
S      -46.32930000     -35.98100000     -69.35470000
S      -43.75200000     -36.31230000     -71.19120000
H      -41.89260000     -34.97270000     -71.97800000
