40
Properties=species:S:1:pos:R:3 #=T CELL(abcABC):=T 1.889726e+02=T 90.00000=T Traj:=T positionsangstrom=T Step:=T 0=T Bead:=T pbc="F F F"
C      -45.49010000     -34.00020000     -73.67390000
C      -45.20660000     -32.64840000     -73.81240000
C      -46.10910000     -31.65270000     -73.30420000
C      -47.15530000     -32.13160000     -72.50190000
C      -47.49400000     -33.53630000     -72.34480000
C      -46.67670000     -34.47450000     -73.00010000
H      -44.76980000     -34.72260000     -74.13700000
H      -45.78800000     -30.60190000     -73.42680000
H      -48.25430000     -33.87520000     -71.73730000
H      -46.92190000     -35.48370000     -72.91110000
C      -48.07970000     -31.13860000     -71.78640000
H      -49.03890000     -31.42880000     -72.07620000
H      -47.96970000     -30.13650000     -72.24000000
C      -43.92620000     -32.29720000     -74.53860000
H      -43.70730000     -32.92320000     -75.37180000
H      -43.83610000     -31.35440000     -75.11140000
S      -47.78840000     -30.93450000     -70.02030000
S      -42.45760000     -32.46970000     -73.33840000
C      -45.99210000     -31.01060000     -69.68770000
H      -45.33290000     -31.00780000     -70.53990000
H      -45.82090000     -30.08320000     -69.15650000
C      -42.94870000     -31.65920000     -71.81740000
H      -43.99480000     -31.30330000     -71.86880000
H      -42.19460000     -30.87720000     -71.62980000
C      -42.75830000     -32.55900000     -70.54670000
H      -41.69210000     -32.55070000     -70.41310000
H      -43.02840000     -32.03210000     -69.63470000
C      -45.69250000     -32.21760000     -68.71040000
H      -46.21520000     -32.04470000     -67.70370000
H      -44.68440000     -32.12730000     -68.37540000
C      -45.90940000     -33.58780000     -69.29270000
C      -46.92190000     -34.41620000     -68.93850000
C      -44.81110000     -34.26720000     -70.04080000
H      -47.70960000     -34.21440000     -68.22950000
C      -45.12180000     -35.59680000     -70.27820000
C      -43.44700000     -33.92000000     -70.52590000
C      -42.89460000     -34.99610000     -71.11490000
S      -46.76340000     -36.04310000     -69.71200000
S      -43.88690000     -36.45990000     -71.09240000
H      -41.95590000     -35.08920000     -71.47950000
