40
Properties=species:S:1:pos:R:3 #=T CELL(abcABC):=T 1.889726e+02=T 90.00000=T Traj:=T positionsangstrom=T Step:=T 0=T Bead:=T pbc="F F F"
C      -45.73790000     -34.14760000     -73.57270000
C      -45.34220000     -32.80390000     -73.88580000
C      -46.11200000     -31.77330000     -73.34440000
C      -47.23750000     -32.08050000     -72.56060000
C      -47.66270000     -33.41640000     -72.37490000
C      -46.85260000     -34.46210000     -72.79590000
H      -45.07700000     -34.96680000     -73.83220000
H      -45.99110000     -30.72770000     -73.56840000
H      -48.71390000     -33.58790000     -71.99820000
H      -47.12350000     -35.60340000     -72.81030000
C      -48.03610000     -30.96980000     -71.87420000
H      -49.09330000     -31.03470000     -72.20090000
H      -47.77590000     -29.96880000     -72.15640000
C      -44.09250000     -32.48840000     -74.58860000
H      -43.79680000     -33.25620000     -75.36410000
H      -44.15780000     -31.59750000     -75.21940000
S      -48.03390000     -31.26110000     -69.94980000
S      -42.54790000     -32.51060000     -73.44600000
C      -46.20700000     -31.00460000     -69.54260000
H      -45.66250000     -30.96540000     -70.42950000
H      -46.02490000     -30.05460000     -68.96940000
C      -42.99430000     -31.57470000     -71.89840000
H      -44.06050000     -31.33770000     -71.85630000
H      -42.58530000     -30.53760000     -71.82850000
C      -42.67350000     -32.38630000     -70.57360000
H      -41.57860000     -32.52580000     -70.50210000
H      -43.07020000     -31.85740000     -69.72280000
C      -45.68390000     -32.13790000     -68.66050000
H      -46.21370000     -32.06750000     -67.75070000
H      -44.63000000     -31.81800000     -68.52280000
C      -45.73560000     -33.56300000     -69.20940000
C      -46.64250000     -34.49490000     -68.75890000
C      -44.71310000     -34.10420000     -70.14850000
H      -47.54240000     -34.22780000     -68.17960000
C      -45.03440000     -35.45930000     -70.43100000
C      -43.37000000     -33.73440000     -70.65800000
C      -42.79000000     -34.79930000     -71.29530000
S      -46.46090000     -36.10560000     -69.44760000
S      -43.68160000     -36.32360000     -71.20130000
H      -41.92110000     -34.82970000     -71.82610000
