40
Properties=species:S:1:pos:R:3 #=T CELL(abcABC):=T 1.889726e+02=T 90.00000=T Traj:=T positionsangstrom=T Step:=T 0=T Bead:=T pbc="F F F"
C      -44.77250000     -33.75930000     -73.89890000
C      -44.14580000     -32.55130000     -73.51260000
C      -44.98430000     -31.55470000     -73.03820000
C      -46.31760000     -31.79650000     -72.79460000
C      -46.91310000     -32.98750000     -73.16890000
C      -46.15250000     -34.01520000     -73.70300000
H      -44.10490000     -34.53610000     -74.43090000
H      -44.63050000     -30.50740000     -72.83420000
H      -47.88450000     -33.26350000     -72.81320000
H      -46.62460000     -34.93140000     -74.02840000
C      -47.15300000     -30.71040000     -72.26470000
H      -48.14340000     -30.67580000     -72.73990000
H      -46.59790000     -29.77700000     -72.45090000
C      -42.62590000     -32.35560000     -73.58590000
H      -42.17770000     -32.80060000     -74.41660000
H      -42.44890000     -31.24850000     -73.50220000
S      -47.52380000     -30.61530000     -70.47600000
S      -41.75540000     -33.28970000     -72.25680000
C      -45.84990000     -30.74530000     -69.61090000
H      -45.05620000     -30.66060000     -70.37950000
H      -45.80290000     -29.87680000     -68.87760000
C      -42.47060000     -32.68610000     -70.63220000
H      -43.27920000     -32.13240000     -70.96100000
H      -41.75950000     -31.94830000     -70.22080000
C      -42.82560000     -33.86770000     -69.75940000
H      -42.00520000     -34.58350000     -69.55480000
H      -43.01660000     -33.43350000     -68.75560000
C      -45.70260000     -32.03290000     -68.79840000
H      -46.42880000     -31.86470000     -68.02980000
H      -44.67040000     -32.03820000     -68.45360000
C      -46.17450000     -33.31370000     -69.41890000
C      -47.51160000     -33.69460000     -69.40800000
C      -45.42130000     -34.36100000     -70.04330000
H      -48.31490000     -33.03110000     -69.15110000
C      -46.19170000     -35.41010000     -70.64530000
C      -44.04340000     -34.64830000     -70.24840000
C      -43.82980000     -35.79040000     -71.04870000
S      -47.87360000     -35.25050000     -70.11870000
S      -45.29580000     -36.63470000     -71.53500000
H      -42.88160000     -36.24230000     -71.33020000
