40
Properties=species:S:1:pos:R:3 #=T CELL(abcABC):=T 1.889726e+02=T 90.00000=T Traj:=T positionsangstrom=T Step:=T 0=T Bead:=T pbc="F F F"
C      -44.78300000     -33.71520000     -73.84290000
C      -44.13840000     -32.49730000     -73.56240000
C      -44.92650000     -31.51810000     -72.96570000
C      -46.24700000     -31.79970000     -72.70860000
C      -46.83850000     -33.00860000     -72.98940000
C      -46.08630000     -34.03200000     -73.55150000
H      -44.12780000     -34.54880000     -74.15340000
H      -44.47560000     -30.55160000     -72.83510000
H      -47.92120000     -33.12130000     -72.76340000
H      -46.52460000     -34.96740000     -73.90360000
C      -47.16620000     -30.67240000     -72.19410000
H      -48.20330000     -30.82330000     -72.52740000
H      -46.73500000     -29.76990000     -72.64920000
C      -42.67410000     -32.36470000     -73.81850000
H      -42.27280000     -32.76020000     -74.77710000
H      -42.44150000     -31.31920000     -73.83280000
S      -47.37940000     -30.49880000     -70.36100000
S      -41.73320000     -33.36200000     -72.53790000
C      -45.75770000     -31.00690000     -69.72070000
H      -45.22380000     -31.37900000     -70.57870000
H      -45.19090000     -30.23810000     -69.27270000
C      -42.48080000     -32.54600000     -71.03930000
H      -43.30950000     -31.93490000     -71.37240000
H      -41.75300000     -31.87800000     -70.57420000
C      -42.96820000     -33.46930000     -69.89840000
H      -42.07880000     -34.03230000     -69.69350000
H      -43.36640000     -32.95170000     -69.03350000
C      -45.90270000     -32.13090000     -68.70540000
H      -46.68750000     -31.92610000     -67.92780000
H      -44.96510000     -32.37090000     -68.13940000
C      -46.30110000     -33.46750000     -69.27130000
C      -47.65010000     -33.86630000     -69.30100000
C      -45.49540000     -34.35490000     -70.04380000
H      -48.39580000     -33.34420000     -68.78820000
C      -46.22970000     -35.46570000     -70.51410000
C      -44.08830000     -34.47960000     -70.31740000
C      -43.76930000     -35.65460000     -71.01600000
S      -47.91450000     -35.33650000     -70.21300000
S      -45.24720000     -36.66990000     -71.28450000
H      -42.72830000     -35.93260000     -71.21980000
