40
Properties=species:S:1:pos:R:3 #=T CELL(abcABC):=T 1.889726e+02=T 90.00000=T Traj:=T positionsangstrom=T Step:=T 0=T Bead:=T pbc="F F F"
C      -47.78760000     -30.58260000     -69.80740000
C      -47.90170000     -31.95230000     -69.70160000
C      -48.19020000     -32.70620000     -70.85610000
C      -48.56340000     -32.10620000     -72.03550000
C      -48.68860000     -30.68990000     -72.04860000
C      -48.33650000     -29.96490000     -70.98530000
H      -47.58590000     -29.83870000     -68.93990000
H      -47.97770000     -33.75250000     -70.78960000
H      -49.05470000     -30.27350000     -72.97610000
H      -48.50520000     -28.88810000     -71.02110000
C      -48.52230000     -32.80330000     -73.37750000
H      -47.62410000     -32.49150000     -73.95070000
H      -49.29370000     -32.48340000     -74.01650000
C      -47.37930000     -32.72820000     -68.44070000
H      -48.20080000     -32.66660000     -67.74700000
H      -47.45070000     -33.82840000     -68.62390000
S      -48.45940000     -34.60620000     -73.35000000
S      -45.87960000     -32.07700000     -67.63420000
C      -46.73220000     -34.83780000     -73.66560000
H      -46.62530000     -35.90750000     -74.00620000
H      -46.36470000     -34.28850000     -74.63450000
C      -44.53030000     -32.32420000     -68.93150000
H      -43.64570000     -31.81960000     -68.61210000
H      -44.83090000     -31.79660000     -69.86720000
C      -44.34980000     -33.83640000     -69.21020000
H      -44.13550000     -34.42110000     -68.31960000
H      -45.21920000     -34.30890000     -69.66830000
C      -45.79650000     -34.34520000     -72.43460000
H      -46.00790000     -35.00600000     -71.58730000
H      -46.01300000     -33.33950000     -72.28720000
C      -44.27280000     -34.36600000     -72.70850000
C      -43.72820000     -34.64140000     -73.90810000
C      -43.25890000     -34.37150000     -71.60740000
H      -44.29920000     -34.67600000     -74.89450000
C      -42.00450000     -34.50920000     -72.17600000
C      -43.19480000     -34.11710000     -70.11600000
C      -41.87070000     -33.99510000     -69.73650000
S      -41.99610000     -34.85970000     -73.90520000
S      -40.71240000     -34.45370000     -71.00120000
H      -41.56180000     -33.91290000     -68.81080000
