40
Properties=species:S:1:pos:R:3 #=T CELL(abcABC):=T 1.889726e+02=T 90.00000=T Traj:=T positionsangstrom=T Step:=T 0=T Bead:=T pbc="F F F"
C      -45.28550000     -33.84360000     -73.68340000
C      -44.54360000     -32.67300000     -73.63130000
C      -45.11780000     -31.42650000     -73.11650000
C      -46.47570000     -31.41000000     -72.78210000
C      -47.20710000     -32.60740000     -72.93360000
C      -46.63460000     -33.79580000     -73.33080000
H      -44.67980000     -34.69800000     -73.90840000
H      -44.44640000     -30.52820000     -72.96900000
H      -48.26510000     -32.57190000     -72.59570000
H      -47.23010000     -34.72660000     -73.38650000
C      -47.17320000     -30.20500000     -72.17580000
H      -48.18140000     -30.00660000     -72.53370000
H      -46.59330000     -29.26220000     -72.14670000
C      -43.11060000     -32.74170000     -74.10150000
H      -42.91360000     -33.40230000     -74.95640000
H      -42.99900000     -31.70150000     -74.60030000
S      -47.49560000     -30.68790000     -70.40870000
S      -41.90560000     -33.11840000     -72.81370000
C      -45.83120000     -31.07590000     -69.71560000
H      -45.04840000     -31.45800000     -70.39350000
H      -45.38980000     -30.19970000     -69.24920000
C      -42.63090000     -32.33280000     -71.29340000
H      -43.58710000     -31.90110000     -71.63650000
H      -41.95480000     -31.58330000     -71.00470000
C      -42.81510000     -33.27420000     -70.07310000
H      -41.82430000     -33.73000000     -69.81290000
H      -43.22400000     -32.61990000     -69.25470000
C      -45.98760000     -32.23040000     -68.69470000
H      -46.75660000     -32.03160000     -67.86320000
H      -45.04410000     -32.22510000     -68.14550000
C      -46.22280000     -33.54440000     -69.24150000
C      -47.47450000     -34.09770000     -69.29930000
C      -45.23550000     -34.41060000     -69.87860000
H      -48.35280000     -33.70700000     -68.77350000
C      -45.83520000     -35.60380000     -70.32550000
C      -43.86060000     -34.39900000     -70.37340000
C      -43.50400000     -35.46860000     -71.15720000
S      -47.46180000     -35.79630000     -69.79630000
S      -44.78700000     -36.65740000     -71.22650000
H      -42.58050000     -35.83040000     -71.49040000
