40
Properties=species:S:1:pos:R:3 #=T CELL(abcABC):=T 1.889726e+02=T 90.00000=T Traj:=T positionsangstrom=T Step:=T 0=T Bead:=T pbc="F F F"
C      -45.02910000     -33.90980000     -73.74420000
C      -44.33840000     -32.65930000     -73.66170000
C      -45.01620000     -31.52590000     -73.20440000
C      -46.35810000     -31.60310000     -72.74600000
C      -46.94580000     -32.83940000     -72.82260000
C      -46.33610000     -33.95560000     -73.30470000
H      -44.65050000     -34.73660000     -74.29550000
H      -44.48610000     -30.56490000     -73.27240000
H      -47.90960000     -32.88910000     -72.46020000
H      -46.88360000     -34.88050000     -73.28820000
C      -47.07700000     -30.39660000     -72.14820000
H      -48.03510000     -30.27550000     -72.73480000
H      -46.48730000     -29.48290000     -72.24260000
C      -42.86010000     -32.62870000     -74.08290000
H      -42.84500000     -33.38940000     -74.84190000
H      -42.45200000     -31.68400000     -74.42680000
S      -47.44480000     -30.57020000     -70.41340000
S      -41.87670000     -33.20250000     -72.59000000
C      -45.78040000     -31.02110000     -69.72700000
H      -45.17650000     -31.28070000     -70.60010000
H      -45.32730000     -30.21030000     -69.17510000
C      -42.74490000     -32.39050000     -71.21860000
H      -43.75170000     -32.12710000     -71.49770000
H      -42.27900000     -31.46240000     -70.87840000
C      -42.93070000     -33.35930000     -70.08620000
H      -41.95440000     -33.76100000     -69.79150000
H      -43.14380000     -32.77600000     -69.15140000
C      -45.94370000     -32.17350000     -68.69300000
H      -46.80970000     -31.90880000     -68.03080000
H      -45.01300000     -32.31920000     -68.06420000
C      -46.28460000     -33.48010000     -69.35460000
C      -47.54310000     -34.01340000     -69.15800000
C      -45.39260000     -34.37260000     -70.03040000
H      -48.43490000     -33.57390000     -68.76380000
C      -46.03000000     -35.53860000     -70.36580000
C      -43.95540000     -34.44340000     -70.39480000
C      -43.60690000     -35.56640000     -71.02450000
S      -47.66660000     -35.56620000     -69.93020000
S      -44.97710000     -36.61870000     -71.31820000
H      -42.60980000     -35.70780000     -71.46980000
