40
Properties=species:S:1:pos:R:3 #=T CELL(abcABC):=T 1.889726e+02=T 90.00000=T Traj:=T positionsangstrom=T Step:=T 0=T Bead:=T pbc="F F F"
C      -45.24710000     -33.78380000     -74.04920000
C      -44.78750000     -32.45950000     -73.79050000
C      -45.57570000     -31.49690000     -73.13470000
C      -46.82710000     -31.83820000     -72.66330000
C      -47.27900000     -33.19720000     -72.75440000
C      -46.53020000     -34.10410000     -73.54410000
H      -44.79940000     -34.42500000     -74.74330000
H      -45.15110000     -30.49900000     -73.00220000
H      -48.14740000     -33.61400000     -72.36770000
H      -47.05040000     -35.00660000     -73.82530000
C      -47.65810000     -30.72850000     -71.97960000
H      -48.68580000     -30.74220000     -72.32600000
H      -47.26760000     -29.69710000     -71.98690000
C      -43.34590000     -32.15220000     -74.12040000
H      -43.29510000     -32.36250000     -75.17690000
H      -43.14760000     -31.05480000     -74.05920000
S      -47.83950000     -30.88010000     -70.07000000
S      -42.19230000     -32.94120000     -72.97090000
C      -46.05970000     -31.01060000     -69.64140000
H      -45.61060000     -31.18150000     -70.56460000
H      -45.62780000     -30.06030000     -69.22150000
C      -42.83000000     -32.18810000     -71.37870000
H      -43.90890000     -31.99930000     -71.54130000
H      -42.23670000     -31.25030000     -71.16280000
C      -42.64660000     -33.12130000     -70.16110000
H      -41.56600000     -33.42060000     -70.14470000
H      -42.99850000     -32.61090000     -69.23790000
C      -45.60690000     -32.11390000     -68.69300000
H      -46.23180000     -31.99270000     -67.77370000
H      -44.54450000     -32.00270000     -68.37310000
C      -45.83220000     -33.49260000     -69.27220000
C      -47.05940000     -34.11540000     -69.09330000
C      -44.94390000     -34.36880000     -69.98760000
H      -47.88800000     -33.61590000     -68.60160000
C      -45.59230000     -35.54450000     -70.43930000
C      -43.54750000     -34.35130000     -70.35900000
C      -43.18850000     -35.46640000     -71.13240000
S      -47.24680000     -35.65270000     -69.83660000
S      -44.47720000     -36.66650000     -71.19390000
H      -42.17430000     -35.77010000     -71.53190000
