40
Properties=species:S:1:pos:R:3 #=T CELL(abcABC):=T 1.889726e+02=T 90.00000=T Traj:=T positionsangstrom=T Step:=T 0=T Bead:=T pbc="F F F"
C      -44.63830000     -33.66110000     -73.74950000
C      -44.05280000     -32.46410000     -73.41080000
C      -44.83170000     -31.41980000     -72.85680000
C      -46.24220000     -31.54340000     -72.66180000
C      -46.82050000     -32.78150000     -73.00040000
C      -46.00020000     -33.77180000     -73.55870000
H      -44.03070000     -34.45390000     -74.13570000
H      -44.34740000     -30.42540000     -72.65550000
H      -47.92510000     -32.78400000     -72.95300000
H      -46.40400000     -34.75020000     -73.89130000
C      -47.11920000     -30.35670000     -72.23330000
H      -48.14560000     -30.47440000     -72.66480000
H      -46.64530000     -29.45030000     -72.63700000
C      -42.57280000     -32.31370000     -73.47760000
H      -42.08870000     -32.45310000     -74.39780000
H      -42.31630000     -31.28890000     -73.20880000
S      -47.43280000     -30.42050000     -70.42420000
S      -41.73880000     -33.39720000     -72.23040000
C      -45.84100000     -31.07600000     -69.65780000
H      -45.12690000     -31.34380000     -70.43460000
H      -45.38520000     -30.29710000     -69.11470000
C      -42.60280000     -32.64030000     -70.76790000
H      -43.43410000     -32.15720000     -71.20810000
H      -41.99210000     -31.88820000     -70.32110000
C      -43.05720000     -33.64550000     -69.67640000
H      -42.18990000     -34.06200000     -69.18770000
H      -43.52340000     -33.01940000     -68.92340000
C      -46.14500000     -32.28440000     -68.73260000
H      -46.97610000     -32.03260000     -68.01630000
H      -45.22450000     -32.48310000     -68.06940000
C      -46.48250000     -33.50610000     -69.50000000
C      -47.78780000     -33.91440000     -69.65440000
C      -45.50830000     -34.50870000     -70.07980000
H      -48.61600000     -33.38570000     -69.21490000
C      -46.19150000     -35.61730000     -70.62860000
C      -44.02890000     -34.62930000     -70.26570000
C      -43.71370000     -35.69930000     -71.03360000
S      -47.92860000     -35.51200000     -70.42320000
S      -45.10340000     -36.65260000     -71.56650000
H      -42.68620000     -36.01270000     -71.25560000
