40
Properties=species:S:1:pos:R:3 #=T CELL(abcABC):=T 1.889726e+02=T 90.00000=T Traj:=T positionsangstrom=T Step:=T 0=T Bead:=T pbc="F F F"
C      -48.04390000     -30.58390000     -69.60780000
C      -47.70030000     -31.91990000     -69.64020000
C      -47.99050000     -32.69960000     -70.76250000
C      -48.49980000     -32.14600000     -71.95800000
C      -48.69690000     -30.74990000     -71.94160000
C      -48.46200000     -29.97040000     -70.83530000
H      -47.66550000     -30.04090000     -68.71310000
H      -47.94280000     -33.78080000     -70.69510000
H      -49.07500000     -30.20660000     -72.81040000
H      -48.52020000     -28.91880000     -71.00830000
C      -48.94530000     -32.88010000     -73.20720000
H      -48.74930000     -32.39490000     -74.15940000
H      -50.05230000     -32.95620000     -73.04500000
C      -47.42990000     -32.57890000     -68.30300000
H      -48.22490000     -32.28930000     -67.57880000
H      -47.21380000     -33.64100000     -68.38500000
S      -48.42420000     -34.69760000     -73.47040000
S      -45.75140000     -31.98450000     -67.65800000
C      -46.53650000     -34.62810000     -73.74460000
H      -46.29840000     -35.65160000     -74.02290000
H      -46.42720000     -33.90560000     -74.46680000
C      -44.63660000     -32.35050000     -69.03800000
H      -43.64930000     -32.02300000     -68.77950000
H      -44.97730000     -31.76020000     -69.91640000
C      -44.40610000     -33.85670000     -69.29350000
H      -44.37570000     -34.28060000     -68.33370000
H      -45.34730000     -34.35160000     -69.72750000
C      -45.73190000     -34.27270000     -72.44150000
H      -46.04690000     -34.83960000     -71.52490000
H      -45.84660000     -33.18570000     -72.02430000
C      -44.24180000     -34.52490000     -72.72130000
C      -43.73030000     -34.90660000     -73.95060000
C      -43.28480000     -34.42080000     -71.68310000
H      -44.24220000     -34.92120000     -74.97780000
C      -41.97180000     -34.43870000     -72.19130000
C      -43.24520000     -34.13480000     -70.22030000
C      -41.93780000     -34.00900000     -69.77820000
S      -41.95120000     -34.89020000     -73.95570000
S      -40.71900000     -34.37220000     -71.02240000
H      -41.59090000     -33.90140000     -68.83010000
