40
Properties=species:S:1:pos:R:3 #=T CELL(abcABC):=T 1.889726e+02=T 90.00000=T Traj:=T positionsangstrom=T Step:=T 0=T Bead:=T pbc="F F F"
C      -44.66090000     -33.76960000     -73.79960000
C      -44.08660000     -32.50670000     -73.53730000
C      -44.87260000     -31.42660000     -73.09380000
C      -46.25760000     -31.60810000     -72.89780000
C      -46.83760000     -32.84650000     -73.27480000
C      -46.05770000     -33.92910000     -73.75680000
H      -44.08800000     -34.54130000     -74.13960000
H      -44.36540000     -30.50950000     -72.88790000
H      -47.91910000     -32.87770000     -72.95340000
H      -46.48380000     -34.88080000     -74.10340000
C      -47.02000000     -30.42710000     -72.33850000
H      -47.86150000     -30.15060000     -72.90720000
H      -46.35580000     -29.55980000     -72.38530000
C      -42.61470000     -32.30570000     -73.61070000
H      -42.20110000     -32.81520000     -74.49040000
H      -42.31750000     -31.21360000     -73.50370000
S      -47.46630000     -30.63350000     -70.53740000
S      -41.76190000     -33.26660000     -72.10220000
C      -45.82840000     -31.02640000     -69.76000000
H      -45.13820000     -31.36290000     -70.56140000
H      -45.36800000     -30.13370000     -69.23060000
C      -42.42230000     -32.66200000     -70.47390000
H      -43.24040000     -31.92500000     -70.64080000
H      -41.57530000     -32.00570000     -69.97060000
C      -42.91150000     -33.83050000     -69.57320000
H      -42.11380000     -34.54850000     -69.40560000
H      -43.25950000     -33.46410000     -68.52540000
C      -45.95960000     -32.15260000     -68.68100000
H      -46.63200000     -31.92620000     -67.84340000
H      -44.97810000     -32.23550000     -68.36920000
C      -46.38340000     -33.52480000     -69.33590000
C      -47.69380000     -33.91490000     -69.33240000
C      -45.48390000     -34.44360000     -69.96220000
H      -48.62870000     -33.40910000     -68.94520000
C      -46.21420000     -35.45540000     -70.58700000
C      -44.05570000     -34.66620000     -70.18830000
C      -43.76090000     -35.66030000     -71.08020000
S      -47.96820000     -35.31210000     -70.36960000
S      -45.25420000     -36.61880000     -71.51350000
H      -42.81310000     -36.17260000     -71.26900000
