40
Properties=species:S:1:pos:R:3 #=T CELL(abcABC):=T 1.889726e+02=T 90.00000=T Traj:=T positionsangstrom=T Step:=T 0=T Bead:=T pbc="F F F"
C      -44.91710000     -33.72530000     -73.68080000
C      -44.21550000     -32.61790000     -73.22930000
C      -44.83850000     -31.47140000     -72.64070000
C      -46.24070000     -31.36000000     -72.61470000
C      -46.97740000     -32.54670000     -72.96430000
C      -46.33360000     -33.62870000     -73.52720000
H      -44.41190000     -34.60820000     -74.25730000
H      -44.31380000     -30.56900000     -72.40510000
H      -48.00830000     -32.60860000     -72.83710000
H      -47.07740000     -34.33000000     -73.95550000
C      -46.77550000     -30.08870000     -71.99710000
H      -47.49550000     -29.60500000     -72.67700000
H      -45.94740000     -29.34090000     -72.00750000
C      -42.69590000     -32.50820000     -73.47520000
H      -42.43780000     -33.05680000     -74.38120000
H      -42.35920000     -31.51390000     -73.52720000
S      -47.28610000     -30.33200000     -70.25900000
S      -41.68030000     -33.41610000     -72.15250000
C      -45.81860000     -31.04930000     -69.44240000
H      -45.11650000     -31.21970000     -70.22460000
H      -45.42170000     -30.43220000     -68.65670000
C      -42.54560000     -32.75410000     -70.64210000
H      -43.37200000     -32.24140000     -71.09830000
H      -41.86680000     -31.99300000     -70.33180000
C      -43.08530000     -33.68620000     -69.60490000
H      -42.25660000     -34.27330000     -69.14490000
H      -43.49310000     -33.08690000     -68.78890000
C      -46.22270000     -32.40780000     -68.77820000
H      -47.12730000     -32.28630000     -68.16740000
H      -45.35400000     -32.68390000     -68.14970000
C      -46.51120000     -33.53930000     -69.70780000
C      -47.80790000     -33.90090000     -70.03120000
C      -45.55650000     -34.54900000     -70.17100000
H      -48.65170000     -33.45630000     -69.54780000
C      -46.16550000     -35.63330000     -70.79540000
C      -44.10230000     -34.64000000     -70.29890000
C      -43.67060000     -35.73200000     -70.99050000
S      -47.89030000     -35.42430000     -70.95240000
S      -45.02210000     -36.78880000     -71.45270000
H      -42.62270000     -36.06280000     -70.87200000
