40
Properties=species:S:1:pos:R:3 #=T CELL(abcABC):=T 1.889726e+02=T 90.00000=T Traj:=T positionsangstrom=T Step:=T 0=T Bead:=T pbc="F F F"
C      -48.18560000     -35.29610000     -71.35290000
C      -48.44670000     -34.10610000     -72.01240000
C      -47.80520000     -33.85130000     -73.22020000
C      -46.87550000     -34.74880000     -73.84260000
C      -46.62740000     -35.90650000     -73.13750000
C      -47.32300000     -36.22110000     -72.01770000
H      -48.94720000     -35.58010000     -70.66030000
H      -48.16280000     -33.01690000     -73.91630000
H      -45.85720000     -36.63770000     -73.40590000
H      -47.20610000     -37.21260000     -71.51530000
C      -46.14040000     -34.51390000     -75.14110000
H      -46.90330000     -34.31350000     -75.86530000
H      -45.71200000     -35.41150000     -75.52140000
C      -49.43920000     -33.08040000     -71.60070000
H      -49.92700000     -32.63740000     -72.47590000
H      -50.22500000     -33.53460000     -71.10040000
S      -44.95740000     -33.16380000     -74.96350000
S      -48.80560000     -31.71890000     -70.61630000
C      -44.16660000     -33.57730000     -73.41170000
H      -44.88450000     -34.11770000     -72.83410000
H      -43.30500000     -34.18260000     -73.64790000
C      -47.34250000     -32.18490000     -69.61770000
H      -47.63830000     -33.01220000     -68.99130000
H      -47.15540000     -31.43630000     -68.84640000
C      -46.13120000     -32.52510000     -70.37840000
H      -46.18050000     -33.43000000     -70.93860000
H      -45.91910000     -31.84430000     -71.22220000
C      -43.66900000     -32.31740000     -72.75850000
H      -44.49450000     -31.55580000     -72.66590000
H      -42.92810000     -31.99050000     -73.54990000
C      -43.00730000     -32.66550000     -71.47100000
C      -41.64730000     -32.89160000     -71.42170000
C      -43.55670000     -32.84590000     -70.12100000
H      -40.93600000     -32.78470000     -72.19420000
C      -42.60540000     -33.10370000     -69.13590000
C      -44.88720000     -32.68510000     -69.53540000
C      -44.91110000     -33.03750000     -68.19970000
S      -40.94970000     -33.35710000     -69.72630000
S      -43.28250000     -33.37990000     -67.59550000
H      -45.76340000     -32.97190000     -67.50230000
