40
Properties=species:S:1:pos:R:3 #=T CELL(abcABC):=T 1.889726e+02=T 90.00000=T Traj:=T positionsangstrom=T Step:=T 0=T Bead:=T pbc="F F F"
C      -44.47210000     -33.10540000     -74.09940000
C      -43.63000000     -32.25720000     -73.38030000
C      -44.23930000     -31.17230000     -72.63200000
C      -45.60840000     -30.94780000     -72.67290000
C      -46.44060000     -31.92170000     -73.34770000
C      -45.86360000     -32.94680000     -74.03980000
H      -44.10420000     -33.99730000     -74.65310000
H      -43.62550000     -30.38320000     -72.16860000
H      -47.52420000     -31.92740000     -73.20590000
H      -46.45390000     -33.66940000     -74.62630000
C      -46.19340000     -29.80970000     -71.88960000
H      -47.03220000     -29.32330000     -72.50630000
H      -45.39400000     -29.12270000     -71.79840000
C      -42.20410000     -32.62510000     -73.18650000
H      -41.80210000     -33.04340000     -74.10120000
H      -41.53600000     -31.76090000     -72.91120000
S      -46.84740000     -30.46570000     -70.28860000
S      -41.93110000     -34.00690000     -71.94980000
C      -45.41910000     -31.34770000     -69.63250000
H      -45.00260000     -31.76570000     -70.49940000
H      -44.81320000     -30.53240000     -69.17790000
C      -42.48070000     -33.42000000     -70.35580000
H      -43.12840000     -32.52650000     -70.42520000
H      -41.63050000     -33.17030000     -69.69240000
C      -43.23090000     -34.50970000     -69.57600000
H      -42.51950000     -35.31340000     -69.41010000
H      -43.52350000     -34.06080000     -68.64010000
C      -45.94790000     -32.42820000     -68.66540000
H      -46.63840000     -31.98360000     -67.96300000
H      -45.11740000     -32.89080000     -68.06630000
C      -46.56790000     -33.56510000     -69.52080000
C      -47.92510000     -33.71040000     -69.56580000
C      -45.81850000     -34.60870000     -70.19080000
H      -48.65560000     -32.98170000     -69.20070000
C      -46.72590000     -35.41430000     -70.85740000
C      -44.47770000     -35.06990000     -70.34500000
C      -44.36440000     -36.17100000     -71.17410000
S      -48.40930000     -35.03660000     -70.57700000
S      -45.93390000     -36.69210000     -71.81920000
H      -43.50450000     -36.90510000     -71.33340000
