40
Properties=species:S:1:pos:R:3 #=T CELL(abcABC):=T 1.889726e+02=T 90.00000=T Traj:=T positionsangstrom=T Step:=T 0=T Bead:=T pbc="F F F"
C      -44.45400000     -33.57160000     -73.87400000
C      -43.56950000     -32.66400000     -73.27600000
C      -44.17860000     -31.55210000     -72.68280000
C      -45.54350000     -31.38080000     -72.60600000
C      -46.37340000     -32.37130000     -73.11690000
C      -45.84200000     -33.40080000     -73.85310000
H      -44.07030000     -34.28710000     -74.51890000
H      -43.51870000     -30.91030000     -72.10380000
H      -47.44230000     -32.28270000     -72.81430000
H      -46.52090000     -33.91750000     -74.51550000
C      -46.09000000     -30.16780000     -71.82840000
H      -46.80620000     -29.69440000     -72.48170000
H      -45.25450000     -29.46860000     -71.69570000
C      -42.11030000     -32.84260000     -73.25190000
H      -41.65840000     -33.22540000     -74.18590000
H      -41.65290000     -31.88500000     -73.00340000
S      -46.90190000     -30.43860000     -70.16140000
S      -41.62700000     -34.00980000     -71.94180000
C      -45.50990000     -31.15150000     -69.20380000
H      -44.73980000     -31.24280000     -69.94460000
H      -45.25860000     -30.40800000     -68.41860000
C      -42.45230000     -33.45300000     -70.36870000
H      -42.96290000     -32.55650000     -70.53990000
H      -41.63990000     -33.28670000     -69.68350000
C      -43.27740000     -34.57120000     -69.71890000
H      -42.77290000     -35.48870000     -69.50710000
H      -43.66910000     -34.11540000     -68.78060000
C      -45.82010000     -32.44030000     -68.56060000
H      -46.39610000     -32.30770000     -67.61110000
H      -44.87100000     -32.77920000     -68.16350000
C      -46.48200000     -33.41220000     -69.46150000
C      -47.82760000     -33.31920000     -69.66740000
C      -45.91370000     -34.48400000     -70.26680000
H      -48.46550000     -32.50010000     -69.42790000
C      -46.84750000     -35.13440000     -71.03140000
C      -44.53750000     -34.99570000     -70.48770000
C      -44.62680000     -36.05760000     -71.38880000
S      -48.45010000     -34.46370000     -70.82770000
S      -46.21500000     -36.50980000     -71.93260000
H      -43.83050000     -36.69380000     -71.50660000
