40
Properties=species:S:1:pos:R:3 #=T CELL(abcABC):=T 1.889726e+02=T 90.00000=T Traj:=T positionsangstrom=T Step:=T 0=T Bead:=T pbc="F F F"
C      -44.61980000     -33.11470000     -74.19140000
C      -43.74640000     -32.23320000     -73.55960000
C      -44.27500000     -31.11730000     -72.84690000
C      -45.66460000     -30.96330000     -72.74390000
C      -46.51460000     -31.81410000     -73.41450000
C      -46.00640000     -32.89030000     -74.14460000
H      -44.21840000     -33.96770000     -74.69710000
H      -43.57800000     -30.38220000     -72.43740000
H      -47.56740000     -31.88190000     -73.20190000
H      -46.71380000     -33.61660000     -74.58320000
C      -46.25650000     -29.82300000     -71.83500000
H      -46.96280000     -29.23530000     -72.36870000
H      -45.42820000     -29.09660000     -71.57120000
C      -42.28090000     -32.57850000     -73.37270000
H      -41.90310000     -33.01120000     -74.26130000
H      -41.68030000     -31.68820000     -73.24240000
S      -47.14460000     -30.51330000     -70.39200000
S      -41.84030000     -33.79760000     -72.01220000
C      -45.75240000     -31.28560000     -69.39750000
H      -44.92970000     -31.51200000     -70.04510000
H      -45.49840000     -30.54390000     -68.55950000
C      -42.49200000     -33.16890000     -70.40610000
H      -43.31480000     -32.46660000     -70.62210000
H      -41.72990000     -32.68490000     -69.72040000
C      -43.10570000     -34.23160000     -69.53730000
H      -42.45500000     -35.04750000     -69.33250000
H      -43.41590000     -33.70700000     -68.61140000
C      -46.19790000     -32.50600000     -68.64150000
H      -46.99390000     -32.14620000     -67.97650000
H      -45.31050000     -32.74850000     -67.95030000
C      -46.63380000     -33.63000000     -69.52820000
C      -47.96480000     -33.90090000     -69.68850000
C      -45.75700000     -34.60580000     -70.17580000
H      -48.82090000     -33.32960000     -69.41820000
C      -46.55480000     -35.58720000     -70.89970000
C      -44.25910000     -34.90010000     -70.22530000
C      -44.09860000     -36.12570000     -70.78080000
S      -48.29230000     -35.29960000     -70.68390000
S      -45.57910000     -36.85420000     -71.47890000
H      -43.12890000     -36.52300000     -70.86660000
