40
Properties=species:S:1:pos:R:3 #=T CELL(abcABC):=T 1.889726e+02=T 90.00000=T Traj:=T positionsangstrom=T Step:=T 0=T Bead:=T pbc="F F F"
C      -44.58010000     -33.17200000     -74.01580000
C      -43.68370000     -32.30000000     -73.33300000
C      -44.20930000     -31.10250000     -72.74460000
C      -45.57990000     -30.89510000     -72.73030000
C      -46.37780000     -31.68460000     -73.57220000
C      -45.88270000     -32.81530000     -74.11900000
H      -44.24120000     -34.22960000     -74.37600000
H      -43.60170000     -30.43930000     -72.12030000
H      -47.43520000     -31.36040000     -73.69550000
H      -46.54790000     -33.47900000     -74.66210000
C      -46.18150000     -29.77150000     -71.90500000
H      -47.05400000     -29.18880000     -72.35850000
H      -45.45610000     -29.02560000     -71.56020000
C      -42.19840000     -32.60440000     -73.26550000
H      -41.69100000     -32.93280000     -74.16360000
H      -41.67820000     -31.70600000     -72.90920000
S      -47.04970000     -30.42450000     -70.39520000
S      -41.73530000     -33.98600000     -72.00550000
C      -45.68270000     -31.28910000     -69.57260000
H      -44.99860000     -31.72300000     -70.34450000
H      -44.99990000     -30.57990000     -69.08880000
C      -42.58760000     -33.38040000     -70.44150000
H      -43.44060000     -32.73830000     -70.79030000
H      -41.86520000     -32.77760000     -69.89370000
C      -43.22880000     -34.49240000     -69.54020000
H      -42.50710000     -35.28260000     -69.35910000
H      -43.48300000     -34.08580000     -68.56620000
C      -46.04490000     -32.49460000     -68.63900000
H      -46.75960000     -32.17800000     -67.84730000
H      -45.16490000     -32.81260000     -68.09150000
C      -46.58290000     -33.62670000     -69.42130000
C      -47.91610000     -33.78600000     -69.50990000
C      -45.80120000     -34.63520000     -70.16850000
H      -48.53400000     -33.22510000     -68.89030000
C      -46.68520000     -35.47760000     -70.87290000
C      -44.39070000     -35.13000000     -70.22160000
C      -44.30470000     -36.18430000     -71.07040000
S      -48.36380000     -35.14790000     -70.56540000
S      -45.83070000     -36.74130000     -71.67530000
H      -43.39510000     -36.72370000     -71.31300000
