40
Properties=species:S:1:pos:R:3 #=T CELL(abcABC):=T 1.889726e+02=T 90.00000=T Traj:=T positionsangstrom=T Step:=T 0=T Bead:=T pbc="F F F"
C      -47.89980000     -36.40170000     -70.29990000
C      -48.32400000     -35.35490000     -71.13410000
C      -47.67910000     -35.19600000     -72.40940000
C      -46.62230000     -36.02020000     -72.77010000
C      -46.22060000     -37.06940000     -71.89520000
C      -46.90010000     -37.34790000     -70.70660000
H      -48.37910000     -36.58870000     -69.31840000
H      -48.06220000     -34.44020000     -73.10370000
H      -45.43130000     -37.75040000     -72.13720000
H      -46.67000000     -38.14940000     -70.01570000
C      -45.87940000     -35.89330000     -74.08010000
H      -46.40450000     -36.29000000     -74.91690000
H      -45.02230000     -36.54170000     -73.97920000
C      -49.35550000     -34.34610000     -70.72870000
H      -50.34110000     -34.65830000     -71.13760000
H      -49.39620000     -34.24330000     -69.68130000
S      -45.18870000     -34.22510000     -74.55550000
S      -48.99030000     -32.57190000     -71.31100000
C      -43.99820000     -33.90060000     -73.20500000
H      -44.45600000     -34.14300000     -72.24750000
H      -43.19280000     -34.61610000     -73.39130000
C      -47.42960000     -32.15260000     -70.37590000
H      -47.50430000     -32.84010000     -69.52050000
H      -47.66110000     -31.12340000     -70.01070000
C      -46.16980000     -32.12980000     -71.12510000
H      -46.05250000     -33.13410000     -71.54660000
H      -46.20390000     -31.38840000     -71.95160000
C      -43.75040000     -32.39600000     -73.22850000
H      -44.66680000     -31.77710000     -73.08610000
H      -43.33340000     -32.07610000     -74.19440000
C      -42.90030000     -32.05670000     -72.02560000
C      -41.51830000     -31.95720000     -71.90170000
C      -43.60830000     -31.85960000     -70.74200000
H      -40.79800000     -31.85940000     -72.76260000
C      -42.74640000     -31.71400000     -69.70090000
C      -45.01340000     -31.94310000     -70.24140000
C      -45.09270000     -31.72210000     -68.86150000
S      -41.05410000     -31.48180000     -70.23100000
S      -43.46620000     -31.64410000     -68.08190000
H      -45.93680000     -31.52330000     -68.28830000
