40
Properties=species:S:1:pos:R:3 #=T CELL(abcABC):=T 1.889726e+02=T 90.00000=T Traj:=T positionsangstrom=T Step:=T 0=T Bead:=T pbc="F F F"
C      -47.49530000     -35.59920000     -69.86270000
C      -48.27280000     -35.23700000     -70.92880000
C      -47.83490000     -35.54570000     -72.30230000
C      -46.62370000     -36.31270000     -72.50910000
C      -45.88190000     -36.73470000     -71.32300000
C      -46.22040000     -36.24290000     -70.04790000
H      -47.82320000     -35.07370000     -69.01250000
H      -48.29110000     -35.23710000     -73.18300000
H      -45.03680000     -37.34670000     -71.41810000
H      -45.52690000     -36.38690000     -69.19610000
C      -45.96250000     -36.55280000     -73.85310000
H      -46.68100000     -36.98870000     -74.53680000
H      -45.18200000     -37.29120000     -73.67860000
C      -49.48110000     -34.32280000     -70.74470000
H      -50.27490000     -34.50540000     -71.46800000
H      -49.95710000     -34.42070000     -69.70360000
S      -45.36180000     -34.96690000     -74.52190000
S      -49.01920000     -32.52380000     -70.82990000
C      -44.10570000     -34.39620000     -73.32230000
H      -44.47100000     -34.88490000     -72.37080000
H      -43.02650000     -34.67670000     -73.58300000
C      -47.43310000     -32.33290000     -69.87230000
H      -47.47020000     -33.07420000     -69.03770000
H      -47.57080000     -31.36080000     -69.43590000
C      -46.28070000     -32.44720000     -70.85090000
H      -46.23070000     -33.46320000     -71.24880000
H      -46.45870000     -31.79380000     -71.72300000
C      -44.05330000     -32.79600000     -73.38900000
H      -45.05200000     -32.47450000     -73.36260000
H      -43.67600000     -32.60580000     -74.39460000
C      -43.20000000     -32.17390000     -72.25950000
C      -41.86790000     -31.78860000     -72.40490000
C      -43.70950000     -31.88640000     -70.95060000
H      -41.34590000     -31.85130000     -73.35570000
C      -42.71000000     -31.40330000     -70.13840000
C      -44.96270000     -32.08750000     -70.19460000
C      -44.81050000     -31.84450000     -68.84560000
S      -41.20280000     -31.10020000     -71.00510000
S      -43.18790000     -31.17280000     -68.51360000
H      -45.54120000     -31.87900000     -68.03630000
