40
Properties=species:S:1:pos:R:3 #=T CELL(abcABC):=T 1.889726e+02=T 90.00000=T Traj:=T positionsangstrom=T Step:=T 0=T Bead:=T pbc="F F F"
C      -47.81160000     -36.26910000     -70.14950000
C      -48.23690000     -35.28400000     -71.10960000
C      -47.55690000     -35.24470000     -72.33970000
C      -46.44230000     -36.05560000     -72.56630000
C      -46.08450000     -37.05230000     -71.66110000
C      -46.69660000     -37.07750000     -70.42930000
H      -48.21550000     -36.42960000     -69.20840000
H      -47.72390000     -34.43480000     -73.03560000
H      -45.22260000     -37.73590000     -71.82810000
H      -46.22220000     -37.71790000     -69.63860000
C      -45.63800000     -35.97690000     -73.77010000
H      -46.13140000     -36.54620000     -74.54000000
H      -44.68690000     -36.41200000     -73.70160000
C      -49.28440000     -34.24140000     -70.77770000
H      -50.24170000     -34.48770000     -71.33070000
H      -49.60470000     -34.33800000     -69.63540000
S      -45.28140000     -34.36000000     -74.53950000
S      -49.06940000     -32.47890000     -71.25140000
C      -43.97600000     -33.84930000     -73.36180000
H      -44.40370000     -34.13120000     -72.40970000
H      -43.13110000     -34.47210000     -73.50490000
C      -47.51490000     -32.05700000     -70.27230000
H      -47.39720000     -32.85970000     -69.50130000
H      -47.66330000     -31.10640000     -69.70650000
C      -46.24710000     -31.90390000     -71.17500000
H      -46.20200000     -32.81890000     -71.81560000
H      -46.17440000     -30.96730000     -71.75970000
C      -43.78650000     -32.39650000     -73.37410000
H      -44.77730000     -31.92710000     -73.47200000
H      -43.09920000     -32.06340000     -74.19260000
C      -43.06140000     -32.02810000     -72.09060000
C      -41.68090000     -31.90620000     -72.05420000
C      -43.69260000     -31.99700000     -70.81290000
H      -41.03310000     -31.78410000     -72.83980000
C      -42.74290000     -31.75790000     -69.76070000
C      -45.00660000     -31.87910000     -70.31380000
C      -45.05810000     -31.73580000     -68.97750000
S      -41.10390000     -31.68970000     -70.36020000
S      -43.51630000     -31.71180000     -68.21420000
H      -45.96610000     -31.73720000     -68.44260000
