40
Properties=species:S:1:pos:R:3 #=T CELL(abcABC):=T 1.889726e+02=T 90.00000=T Traj:=T positionsangstrom=T Step:=T 0=T Bead:=T pbc="F F F"
C      -47.91990000     -36.31250000     -70.27320000
C      -48.11860000     -35.19470000     -71.09460000
C      -47.31610000     -34.99160000     -72.21100000
C      -46.42440000     -36.00590000     -72.51180000
C      -46.27070000     -37.12080000     -71.74830000
C      -46.97660000     -37.23330000     -70.55040000
H      -48.45950000     -36.39370000     -69.38320000
H      -47.40990000     -34.15740000     -72.85370000
H      -45.61590000     -37.90360000     -71.98010000
H      -46.77680000     -38.02860000     -69.87780000
C      -45.82290000     -35.94170000     -73.94400000
H      -46.62100000     -36.21370000     -74.66010000
H      -44.97540000     -36.71180000     -74.02040000
C      -49.34200000     -34.33430000     -70.77120000
H      -50.20040000     -34.70510000     -71.33190000
H      -49.72030000     -34.28670000     -69.79810000
S      -45.35060000     -34.23830000     -74.51730000
S      -49.11560000     -32.58470000     -71.27660000
C      -43.93780000     -33.84760000     -73.33800000
H      -44.24180000     -34.02950000     -72.29520000
H      -43.04800000     -34.45520000     -73.57780000
C      -47.56490000     -32.15100000     -70.33910000
H      -47.37760000     -32.88300000     -69.52550000
H      -47.70030000     -31.19730000     -69.92870000
C      -46.26040000     -32.06150000     -71.17020000
H      -46.09260000     -32.92870000     -71.86040000
H      -46.46430000     -31.30760000     -71.85960000
C      -43.49270000     -32.38610000     -73.45580000
H      -44.36220000     -31.91390000     -73.86390000
H      -42.73780000     -32.30250000     -74.21550000
C      -42.84470000     -31.95320000     -72.09610000
C      -41.45040000     -31.84120000     -71.87520000
C      -43.60460000     -31.88290000     -70.85190000
H      -40.65260000     -31.92300000     -72.60500000
C      -42.77260000     -31.60500000     -69.76970000
C      -44.99450000     -32.00110000     -70.34650000
C      -45.11270000     -31.93880000     -68.96350000
S      -41.04940000     -31.66940000     -70.21180000
S      -43.54790000     -31.67310000     -68.19550000
H      -45.97280000     -31.92380000     -68.39950000
