40
Properties=species:S:1:pos:R:3 #=T CELL(abcABC):=T 1.889726e+02=T 90.00000=T Traj:=T positionsangstrom=T Step:=T 0=T Bead:=T pbc="F F F"
C      -44.91190000     -33.69930000     -73.65890000
C      -43.88570000     -32.90380000     -73.13120000
C      -44.22740000     -31.67670000     -72.52120000
C      -45.52420000     -31.20930000     -72.56880000
C      -46.47240000     -31.96400000     -73.28220000
C      -46.21630000     -33.26040000     -73.69920000
H      -44.68840000     -34.66720000     -74.15080000
H      -43.45450000     -31.10690000     -71.94670000
H      -47.50360000     -31.64040000     -73.37850000
H      -46.90820000     -33.88050000     -74.27530000
C      -46.00610000     -29.89920000     -71.89570000
H      -46.80430000     -29.48450000     -72.41640000
H      -45.15510000     -29.23970000     -71.86690000
C      -42.41660000     -33.26170000     -73.31580000
H      -42.23050000     -33.87610000     -74.19950000
H      -41.83740000     -32.36120000     -73.44560000
S      -46.62720000     -30.26010000     -70.20710000
S      -41.57360000     -34.18010000     -71.85830000
C      -45.33440000     -31.31390000     -69.31220000
H      -44.72050000     -31.80860000     -70.11850000
H      -44.61330000     -30.68830000     -68.68460000
C      -42.30540000     -33.51070000     -70.31770000
H      -42.72120000     -32.58530000     -70.61670000
H      -41.43980000     -33.33490000     -69.60790000
C      -43.32720000     -34.44760000     -69.60110000
H      -42.77580000     -35.37400000     -69.26130000
H      -43.61040000     -33.91760000     -68.65260000
C      -46.04230000     -32.43320000     -68.51130000
H      -46.82980000     -32.09770000     -67.81260000
H      -45.30820000     -32.97520000     -67.88630000
C      -46.60300000     -33.41690000     -69.55190000
C      -47.94650000     -33.40390000     -69.85910000
C      -45.88370000     -34.36710000     -70.28850000
H      -48.72000000     -32.84630000     -69.34620000
C      -46.76880000     -35.09880000     -71.14660000
C      -44.54660000     -34.93320000     -70.34770000
C      -44.49640000     -36.00860000     -71.17180000
S      -48.43750000     -34.54790000     -71.03900000
S      -45.96380000     -36.44610000     -71.93030000
H      -43.66380000     -36.69930000     -71.31330000
