40
Properties=species:S:1:pos:R:3 #=T CELL(abcABC):=T 1.889726e+02=T 90.00000=T Traj:=T positionsangstrom=T Step:=T 0=T Bead:=T pbc="F F F"
C      -48.43910000     -32.18380000     -68.96410000
C      -47.08570000     -32.05210000     -68.64200000
C      -46.25150000     -31.23580000     -69.44570000
C      -46.78600000     -30.40270000     -70.46480000
C      -48.20740000     -30.49510000     -70.70240000
C      -48.96500000     -31.41240000     -70.02440000
H      -49.06260000     -32.90860000     -68.35680000
H      -45.17630000     -31.26720000     -69.32720000
H      -48.75130000     -29.93270000     -71.43330000
H      -50.01290000     -31.40880000     -70.21620000
C      -45.92030000     -29.39800000     -71.18120000
H      -44.99390000     -29.26800000     -70.66830000
H      -46.35150000     -28.45010000     -71.23820000
C      -46.41740000     -32.90880000     -67.57930000
H      -45.32450000     -32.69470000     -67.61780000
H      -46.82110000     -32.68140000     -66.53040000
S      -45.56840000     -29.75920000     -72.92710000
S      -46.74920000     -34.71670000     -67.83410000
C      -45.29540000     -31.54570000     -73.05510000
H      -46.11580000     -32.14500000     -72.80990000
H      -45.11940000     -31.83230000     -74.16630000
C      -45.50320000     -35.29070000     -69.10250000
H      -45.61520000     -36.39610000     -68.97240000
H      -44.50090000     -34.90630000     -68.71820000
C      -45.77310000     -34.68410000     -70.47050000
H      -46.87860000     -34.73950000     -70.77680000
H      -45.47180000     -33.66100000     -70.46830000
C      -44.03710000     -32.08780000     -72.23090000
H      -44.28370000     -32.11670000     -71.15280000
H      -43.23440000     -31.39390000     -72.47110000
C      -43.52610000     -33.45760000     -72.68790000
C      -42.47380000     -33.45650000     -73.52460000
C      -44.05670000     -34.80590000     -72.41520000
H      -42.08540000     -32.50910000     -73.81380000
C      -43.45800000     -35.69160000     -73.29640000
C      -44.98990000     -35.41540000     -71.54340000
C      -45.04380000     -36.78050000     -71.67910000
S      -42.19190000     -35.01160000     -74.30830000
S      -43.89630000     -37.34630000     -72.93800000
H      -45.68880000     -37.50230000     -71.12480000
