40
Properties=species:S:1:pos:R:3 #=T CELL(abcABC):=T 1.889726e+02=T 90.00000=T Traj:=T positionsangstrom=T Step:=T 0=T Bead:=T pbc="F F F"
C      -47.90090000     -36.16630000     -70.70520000
C      -48.24820000     -35.17030000     -71.57530000
C      -47.65630000     -35.12940000     -72.87640000
C      -46.61740000     -36.00850000     -73.20020000
C      -46.20100000     -36.96090000     -72.25390000
C      -46.82110000     -37.01400000     -70.97450000
H      -48.33850000     -36.01460000     -69.67350000
H      -48.09000000     -34.39130000     -73.58000000
H      -45.44020000     -37.76040000     -72.37720000
H      -46.53340000     -37.74420000     -70.23410000
C      -45.88670000     -36.03600000     -74.52590000
H      -46.68770000     -35.95550000     -75.30230000
H      -45.33760000     -36.92260000     -74.71170000
C      -49.35710000     -34.24350000     -71.19360000
H      -50.28960000     -34.32090000     -71.76000000
H      -49.52500000     -34.29050000     -70.08620000
S      -44.82620000     -34.52420000     -74.78520000
S      -48.91360000     -32.47160000     -71.34500000
C      -43.83670000     -34.17120000     -73.13020000
H      -44.55340000     -34.41350000     -72.31520000
H      -42.87840000     -34.75990000     -73.15150000
C      -47.58530000     -32.25910000     -70.12620000
H      -47.76170000     -33.02890000     -69.38040000
H      -47.72490000     -31.28900000     -69.67050000
C      -46.23450000     -32.42770000     -70.87260000
H      -46.06130000     -33.42780000     -71.27960000
H      -46.10490000     -31.75160000     -71.76300000
C      -43.68660000     -32.66370000     -72.97750000
H      -44.71310000     -32.28440000     -72.99950000
H      -43.17400000     -32.33060000     -73.83990000
C      -43.02560000     -32.12900000     -71.68180000
C      -41.69870000     -31.78610000     -71.61360000
C      -43.68760000     -32.04210000     -70.39890000
H      -41.02600000     -31.65620000     -72.49790000
C      -42.80990000     -31.54950000     -69.42650000
C      -45.08710000     -32.23580000     -69.88600000
C      -45.20150000     -32.11330000     -68.47710000
S      -41.21200000     -31.15360000     -70.01130000
S      -43.56080000     -31.48340000     -67.82520000
H      -46.03880000     -32.34300000     -67.90800000
