40
Properties=species:S:1:pos:R:3 #=T CELL(abcABC):=T 1.889726e+02=T 90.00000=T Traj:=T positionsangstrom=T Step:=T 0=T Bead:=T pbc="F F F"
C      -47.94060000     -36.15900000     -70.63170000
C      -48.21540000     -35.16910000     -71.62300000
C      -47.48080000     -35.12670000     -72.83880000
C      -46.51810000     -36.05950000     -73.09330000
C      -46.19390000     -36.98390000     -72.05940000
C      -46.89740000     -37.07710000     -70.88490000
H      -48.63250000     -36.24950000     -69.84240000
H      -47.66680000     -34.38330000     -73.55640000
H      -45.41540000     -37.66570000     -72.22430000
H      -46.67450000     -37.79200000     -70.10560000
C      -45.82240000     -36.12770000     -74.40170000
H      -46.50710000     -36.29150000     -75.21610000
H      -45.07320000     -36.89630000     -74.40000000
C      -49.31620000     -34.16650000     -71.37520000
H      -50.23010000     -34.19910000     -72.06370000
H      -49.74300000     -34.46930000     -70.37370000
S      -45.05260000     -34.39790000     -74.83020000
S      -48.85390000     -32.38220000     -71.41580000
C      -44.09770000     -33.93330000     -73.23340000
H      -44.72530000     -34.26490000     -72.37050000
H      -43.15530000     -34.49030000     -73.15930000
C      -47.51580000     -32.34760000     -70.01820000
H      -47.94290000     -32.95480000     -69.23140000
H      -47.53380000     -31.36540000     -69.61340000
C      -46.17410000     -33.00270000     -70.43660000
H      -46.28360000     -34.10280000     -70.23610000
H      -45.98500000     -32.88710000     -71.47990000
C      -43.79520000     -32.42070000     -73.07180000
H      -44.70110000     -31.83290000     -73.09090000
H      -43.18740000     -32.07870000     -73.97570000
C      -43.10720000     -32.12030000     -71.74960000
C      -41.81600000     -31.84250000     -71.72540000
C      -43.68040000     -32.05980000     -70.36480000
H      -41.23710000     -31.83400000     -72.58940000
C      -42.73760000     -31.57780000     -69.42590000
C      -44.95770000     -32.39170000     -69.75950000
C      -45.03160000     -31.86240000     -68.52170000
S      -41.18480000     -31.48060000     -70.08740000
S      -43.50160000     -31.22440000     -67.92360000
H      -45.93910000     -31.79230000     -67.87890000
