40
Properties=species:S:1:pos:R:3 #=T CELL(abcABC):=T 1.889726e+02=T 90.00000=T Traj:=T positionsangstrom=T Step:=T 0=T Bead:=T pbc="F F F"
C      -47.90600000     -36.16900000     -70.60000000
C      -48.15880000     -35.15040000     -71.55650000
C      -47.43790000     -35.18270000     -72.76700000
C      -46.48190000     -36.15160000     -73.03420000
C      -46.30620000     -37.16310000     -72.07350000
C      -46.96050000     -37.13010000     -70.86880000
H      -48.33230000     -36.04960000     -69.59540000
H      -47.72730000     -34.48440000     -73.55470000
H      -45.55970000     -37.98250000     -72.31270000
H      -46.81430000     -37.92510000     -70.14390000
C      -45.66120000     -35.98620000     -74.32380000
H      -46.24310000     -36.25370000     -75.20750000
H      -44.75500000     -36.66370000     -74.33230000
C      -49.32120000     -34.31560000     -71.35730000
H      -50.04340000     -34.31080000     -72.07520000
H      -49.73610000     -34.43710000     -70.39370000
S      -45.25150000     -34.27270000     -74.71610000
S      -48.84520000     -32.47890000     -71.45270000
C      -44.14250000     -34.04220000     -73.24810000
H      -44.54450000     -34.63340000     -72.41230000
H      -43.19010000     -34.43360000     -73.58280000
C      -47.54470000     -32.34430000     -69.96620000
H      -47.70440000     -33.10630000     -69.17250000
H      -47.61380000     -31.30370000     -69.57470000
C      -46.18410000     -32.56690000     -70.55700000
H      -46.06380000     -33.61050000     -70.97870000
H      -46.17870000     -31.98990000     -71.50070000
C      -43.93420000     -32.55800000     -73.00410000
H      -44.86690000     -32.05280000     -72.80680000
H      -43.50090000     -32.16840000     -73.93560000
C      -43.16380000     -32.20910000     -71.75110000
C      -41.80320000     -32.06860000     -71.72550000
C      -43.69010000     -31.95160000     -70.41950000
H      -41.16480000     -32.25500000     -72.53230000
C      -42.70270000     -31.54470000     -69.50940000
C      -44.96940000     -32.10810000     -69.82920000
C      -44.97250000     -31.71820000     -68.51110000
S      -41.15330000     -31.42960000     -70.24020000
S      -43.35160000     -31.32680000     -67.87520000
H      -45.80610000     -31.97090000     -67.76650000
