40
Properties=species:S:1:pos:R:3 #=T CELL(abcABC):=T 1.889726e+02=T 90.00000=T Traj:=T positionsangstrom=T Step:=T 0=T Bead:=T pbc="F F F"
C      -44.91070000     -34.42740000     -73.61440000
C      -43.87400000     -33.52380000     -73.35220000
C      -44.22610000     -32.14140000     -73.25650000
C      -45.50300000     -31.67520000     -73.23870000
C      -46.52510000     -32.60070000     -73.45560000
C      -46.27370000     -33.95820000     -73.67940000
H      -44.73310000     -35.52030000     -73.71390000
H      -43.41090000     -31.40130000     -73.20030000
H      -47.60510000     -32.19260000     -73.37090000
H      -47.13130000     -34.62540000     -73.78340000
C      -45.85810000     -30.16580000     -72.94610000
H      -46.41610000     -29.70290000     -73.81170000
H      -44.94330000     -29.51380000     -72.87400000
C      -42.40050000     -33.93220000     -73.16930000
H      -42.43340000     -34.99550000     -73.30880000
H      -41.87790000     -33.41850000     -73.98910000
S      -46.95410000     -30.12220000     -71.48970000
S      -41.48250000     -33.54740000     -71.55350000
C      -45.82800000     -30.66950000     -70.15990000
H      -44.96160000     -31.13820000     -70.68270000
H      -45.41880000     -29.82350000     -69.63330000
C      -42.72170000     -32.70860000     -70.54510000
H      -43.39430000     -32.38070000     -71.21900000
H      -42.22020000     -31.76490000     -70.15870000
C      -43.32420000     -33.47580000     -69.29560000
H      -42.58280000     -34.07490000     -68.79040000
H      -43.54190000     -32.71460000     -68.60750000
C      -46.45250000     -31.71130000     -69.22600000
H      -47.32660000     -31.34880000     -68.74230000
H      -45.71440000     -31.86560000     -68.41530000
C      -46.73700000     -33.01310000     -69.89130000
C      -47.96090000     -33.27380000     -70.46790000
C      -45.86250000     -34.16280000     -69.90090000
H      -48.73700000     -32.55890000     -70.50250000
C      -46.58460000     -35.35920000     -70.22310000
C      -44.46830000     -34.52350000     -69.60960000
C      -44.13230000     -35.86840000     -69.88540000
S      -48.24210000     -34.96720000     -70.81860000
S      -45.56700000     -36.75360000     -70.34450000
H      -43.19130000     -36.38320000     -69.84600000
