40
Properties=species:S:1:pos:R:3 #=T CELL(abcABC):=T 1.889726e+02=T 90.00000=T Traj:=T positionsangstrom=T Step:=T 0=T Bead:=T pbc="F F F"
C      -44.38190000     -34.43640000     -73.78410000
C      -43.64770000     -33.37040000     -73.23760000
C      -44.24890000     -32.18240000     -72.85460000
C      -45.61280000     -31.92170000     -73.17340000
C      -46.35510000     -32.95180000     -73.77000000
C      -45.69620000     -34.20580000     -74.10390000
H      -43.80230000     -35.31980000     -73.93610000
H      -43.51810000     -31.38620000     -72.59750000
H      -47.40700000     -32.67080000     -74.00950000
H      -46.30400000     -34.97230000     -74.50360000
C      -46.11310000     -30.50060000     -72.95100000
H      -46.91990000     -30.16140000     -73.58620000
H      -45.18550000     -29.87490000     -73.06120000
C      -42.12650000     -33.51380000     -73.02680000
H      -41.80370000     -34.12850000     -73.88220000
H      -41.67310000     -32.46890000     -73.19400000
S      -46.59530000     -30.15210000     -71.20280000
S      -41.75740000     -34.29800000     -71.35400000
C      -45.24860000     -30.82020000     -70.13290000
H      -44.62100000     -31.53230000     -70.74020000
H      -44.72090000     -29.99750000     -69.67660000
C      -42.46680000     -33.33880000     -70.00440000
H      -42.93340000     -32.41130000     -70.35840000
H      -41.81160000     -33.05240000     -69.25140000
C      -43.42140000     -34.20000000     -69.22830000
H      -42.80500000     -35.05550000     -68.97680000
H      -43.68610000     -33.73810000     -68.27010000
C      -45.85860000     -31.64690000     -68.97910000
H      -46.35890000     -31.03370000     -68.25560000
H      -44.91450000     -31.98060000     -68.35110000
C      -46.57100000     -32.85540000     -69.45830000
C      -47.89070000     -32.73490000     -69.90350000
C      -45.95290000     -34.07230000     -69.88680000
H      -48.54600000     -31.82570000     -69.74440000
C      -46.93790000     -34.84590000     -70.53700000
C      -44.63560000     -34.69700000     -69.88410000
C      -44.67640000     -35.91090000     -70.50440000
S      -48.50550000     -34.19200000     -70.59960000
S      -46.21270000     -36.28060000     -71.28540000
H      -43.83890000     -36.59890000     -70.68380000
