40
Properties=species:S:1:pos:R:3 #=T CELL(abcABC):=T 1.889726e+02=T 90.00000=T Traj:=T positionsangstrom=T Step:=T 0=T Bead:=T pbc="F F F"
C      -44.96610000     -34.54990000     -73.37610000
C      -43.99290000     -33.60430000     -73.21300000
C      -44.35370000     -32.20900000     -73.21040000
C      -45.65430000     -31.79070000     -73.29010000
C      -46.63600000     -32.74910000     -73.45220000
C      -46.31370000     -34.08270000     -73.59860000
H      -44.73960000     -35.63450000     -73.40670000
H      -43.57800000     -31.44810000     -73.14740000
H      -47.67180000     -32.45830000     -73.67400000
H      -47.16750000     -34.74000000     -73.79150000
C      -46.03200000     -30.35390000     -73.13460000
H      -46.73210000     -30.09780000     -73.92190000
H      -45.16880000     -29.68020000     -73.13460000
C      -42.63900000     -34.11030000     -72.93800000
H      -42.60360000     -35.17420000     -72.75010000
H      -42.02270000     -34.01590000     -73.87370000
S      -46.93620000     -29.96330000     -71.55750000
S      -41.70570000     -33.32070000     -71.58160000
C      -45.74080000     -30.55540000     -70.26630000
H      -44.76060000     -30.75250000     -70.69320000
H      -45.58720000     -29.82310000     -69.48100000
C      -42.77600000     -32.48250000     -70.38040000
H      -43.63980000     -32.04940000     -70.91590000
H      -42.24690000     -31.60080000     -69.93200000
C      -43.30180000     -33.36370000     -69.27410000
H      -42.40290000     -33.89410000     -68.86560000
H      -43.74820000     -32.66380000     -68.49430000
C      -46.37350000     -31.66360000     -69.43850000
H      -47.27990000     -31.20660000     -69.02130000
H      -45.70010000     -31.87990000     -68.57140000
C      -46.69440000     -33.01140000     -70.01850000
C      -47.99530000     -33.45440000     -70.26010000
C      -45.75670000     -34.11500000     -70.10680000
H      -48.81370000     -32.85090000     -70.31060000
C      -46.32680000     -35.34970000     -70.42340000
C      -44.34380000     -34.42060000     -69.78640000
C      -43.99180000     -35.77670000     -69.84070000
S      -48.11820000     -35.14510000     -70.75750000
S      -45.35330000     -36.76690000     -70.31110000
H      -43.06350000     -36.24860000     -69.53170000
