40
Properties=species:S:1:pos:R:3 #=T CELL(abcABC):=T 1.889726e+02=T 90.00000=T Traj:=T positionsangstrom=T Step:=T 0=T Bead:=T pbc="F F F"
C      -44.71760000     -35.82810000     -70.04730000
C      -44.77460000     -34.72710000     -69.10380000
C      -43.83890000     -33.70090000     -69.12870000
C      -42.79030000     -33.65940000     -70.10620000
C      -42.82640000     -34.81090000     -71.01140000
C      -43.66510000     -35.91000000     -70.97580000
H      -45.48580000     -36.51520000     -70.05030000
H      -43.90200000     -32.88610000     -68.38630000
H      -42.13200000     -34.74580000     -71.85970000
H      -43.50910000     -36.67990000     -71.76330000
C      -41.75260000     -32.58380000     -70.06630000
H      -40.96550000     -32.63430000     -70.89930000
H      -41.27830000     -32.63630000     -69.00600000
C      -45.98530000     -34.64200000     -68.20830000
H      -46.05190000     -35.59100000     -67.55560000
H      -45.92670000     -33.85260000     -67.48300000
S      -42.30920000     -30.82610000     -70.04660000
S      -47.58770000     -34.37770000     -69.16310000
C      -43.33230000     -30.77460000     -71.55330000
H      -43.23150000     -29.79660000     -71.88160000
H      -42.78980000     -31.33640000     -72.26570000
C      -47.54640000     -32.46040000     -69.47130000
H      -46.46350000     -32.21750000     -69.44470000
H      -48.07010000     -31.98290000     -68.56590000
C      -47.92950000     -31.93620000     -70.86970000
H      -49.01830000     -31.73520000     -70.83240000
H      -47.42570000     -31.01100000     -70.95440000
C      -44.75910000     -31.31650000     -71.34090000
H      -45.49910000     -30.56240000     -71.35370000
H      -45.05330000     -31.73540000     -70.33240000
C      -45.06030000     -32.30400000     -72.40900000
C      -44.25630000     -32.58850000     -73.43770000
C      -46.31250000     -32.99870000     -72.56140000
H      -43.16340000     -32.39380000     -73.35350000
C      -46.34040000     -33.98920000     -73.52240000
C      -47.68590000     -32.90970000     -71.92780000
C      -48.63700000     -33.80510000     -72.50860000
S      -44.86460000     -33.83140000     -74.56110000
S      -47.89440000     -34.73860000     -73.81920000
H      -49.69990000     -33.79930000     -72.37510000
