40
Properties=species:S:1:pos:R:3 #=T CELL(abcABC):=T 1.889726e+02=T 90.00000=T Traj:=T positionsangstrom=T Step:=T 0=T Bead:=T pbc="F F F"
C      -45.20020000     -34.59430000     -73.17440000
C      -44.16260000     -33.65320000     -73.00850000
C      -44.52490000     -32.31440000     -73.15290000
C      -45.83320000     -31.91310000     -73.32360000
C      -46.85650000     -32.84310000     -73.54410000
C      -46.50360000     -34.22730000     -73.48620000
H      -44.86660000     -35.60510000     -72.97770000
H      -43.79420000     -31.51240000     -72.94920000
H      -47.87940000     -32.66070000     -73.53270000
H      -47.22050000     -35.01210000     -73.68980000
C      -46.04200000     -30.37510000     -73.30670000
H      -46.56690000     -30.03110000     -74.18780000
H      -45.05970000     -29.87640000     -73.27980000
C      -42.74840000     -34.17610000     -72.73060000
H      -42.71140000     -35.17290000     -72.21280000
H      -42.14130000     -34.26130000     -73.58670000
S      -47.00300000     -29.87610000     -71.79080000
S      -41.68650000     -32.96810000     -71.71770000
C      -45.90250000     -30.46310000     -70.42750000
H      -45.00380000     -30.76850000     -70.96530000
H      -45.69330000     -29.55870000     -69.86620000
C      -42.76520000     -32.41800000     -70.23050000
H      -43.77090000     -32.07620000     -70.78170000
H      -42.22470000     -31.59740000     -69.86910000
C      -43.17530000     -33.41500000     -69.25670000
H      -42.38510000     -33.95090000     -68.81690000
H      -43.66060000     -32.80490000     -68.50440000
C      -46.36540000     -31.65320000     -69.47460000
H      -47.23840000     -31.24210000     -68.92250000
H      -45.53420000     -31.79990000     -68.80630000
C      -46.61190000     -33.05400000     -69.90570000
C      -47.86670000     -33.48530000     -70.31750000
C      -45.66000000     -34.20080000     -69.92790000
H      -48.70700000     -32.83260000     -70.16770000
C      -46.22930000     -35.39550000     -70.35920000
C      -44.20940000     -34.44350000     -69.71850000
C      -43.91340000     -35.76800000     -69.82480000
S      -47.93900000     -35.25100000     -70.57380000
S      -45.21500000     -36.79810000     -70.46450000
H      -42.93040000     -36.14880000     -69.60650000
