40
Properties=species:S:1:pos:R:3 #=T CELL(abcABC):=T 1.889726e+02=T 90.00000=T Traj:=T positionsangstrom=T Step:=T 0=T Bead:=T pbc="F F F"
C      -41.31290000     -34.25970000     -73.23770000
C      -42.45660000     -34.84810000     -72.69660000
C      -43.63800000     -34.84230000     -73.47100000
C      -43.66140000     -34.22820000     -74.73170000
C      -42.45610000     -33.82870000     -75.37040000
C      -41.26450000     -33.77400000     -74.58750000
H      -40.40900000     -34.22500000     -72.57300000
H      -44.50050000     -35.29060000     -73.08650000
H      -42.40030000     -33.42590000     -76.37180000
H      -40.33600000     -33.25750000     -75.04750000
C      -44.96620000     -33.98510000     -75.44630000
H      -44.92050000     -34.54760000     -76.40680000
H      -45.05290000     -32.96770000     -75.76540000
C      -42.21530000     -35.62330000     -71.36290000
H      -43.13050000     -36.28870000     -71.07790000
H      -41.41800000     -36.33880000     -71.44690000
S      -46.55160000     -34.45960000     -74.50950000
S      -41.87670000     -34.40530000     -70.02700000
C      -46.62310000     -33.31690000     -72.95010000
H      -45.56930000     -33.02280000     -72.75130000
H      -47.31010000     -32.41680000     -73.13240000
C      -43.52760000     -33.87700000     -69.21230000
H      -43.16450000     -33.38470000     -68.25640000
H      -43.97580000     -34.83650000     -68.97080000
C      -44.41900000     -33.08070000     -70.07340000
H      -43.79510000     -32.25290000     -70.42460000
H      -44.62540000     -33.69830000     -70.91810000
C      -47.25930000     -34.12850000     -71.78180000
H      -46.42850000     -34.59880000     -71.29270000
H      -48.01840000     -34.78870000     -72.10160000
C      -47.87200000     -33.22150000     -70.69940000
C      -49.19430000     -32.93710000     -70.63390000
C      -47.10440000     -32.60670000     -69.69470000
H      -50.06140000     -33.18540000     -71.30540000
C      -47.90710000     -31.95170000     -68.78580000
C      -45.69880000     -32.54550000     -69.33420000
C      -45.46350000     -31.74820000     -68.24070000
S      -49.59250000     -31.87180000     -69.19890000
S      -46.88700000     -31.02310000     -67.63450000
H      -44.51400000     -31.68530000     -67.77020000
