40
Properties=species:S:1:pos:R:3 #=T CELL(abcABC):=T 1.889726e+02=T 90.00000=T Traj:=T positionsangstrom=T Step:=T 0=T Bead:=T pbc="F F F"
C      -44.59030000     -35.17170000     -72.85560000
C      -43.88940000     -34.03030000     -73.23850000
C      -44.63430000     -32.93990000     -73.68200000
C      -46.01230000     -32.91540000     -73.69720000
C      -46.75500000     -34.12600000     -73.34310000
C      -45.99710000     -35.22840000     -72.92260000
H      -44.10200000     -36.07560000     -72.57140000
H      -44.16740000     -32.04850000     -74.11290000
H      -47.80330000     -34.18040000     -73.33070000
H      -46.50470000     -36.08760000     -72.58880000
C      -46.66510000     -31.58200000     -73.98150000
H      -47.38230000     -31.69820000     -74.71960000
H      -45.93690000     -30.86010000     -74.31730000
C      -42.35760000     -33.95240000     -73.14890000
H      -42.04610000     -35.03530000     -72.99150000
H      -41.98750000     -33.66190000     -74.11270000
S      -47.60240000     -30.88130000     -72.54040000
S      -41.59790000     -32.88780000     -71.87390000
C      -46.33590000     -30.48440000     -71.28120000
H      -45.39350000     -30.84440000     -71.68190000
H      -46.27080000     -29.40870000     -71.25380000
C      -42.85630000     -31.87940000     -71.12810000
H      -43.70340000     -31.78650000     -71.84250000
H      -42.44700000     -30.92590000     -70.91060000
C      -43.35520000     -32.29280000     -69.68010000
H      -42.44050000     -32.40400000     -69.08960000
H      -43.91450000     -31.47880000     -69.15140000
C      -46.48430000     -31.10500000     -69.86430000
H      -47.33960000     -30.66400000     -69.34270000
H      -45.57240000     -30.82170000     -69.27030000
C      -46.66730000     -32.65050000     -69.92220000
C      -47.92610000     -33.23000000     -69.96090000
C      -45.64420000     -33.68160000     -69.77060000
H      -48.77540000     -32.68610000     -70.20450000
C      -46.18870000     -34.96080000     -69.63900000
C      -44.17010000     -33.58130000     -69.58110000
C      -43.60820000     -34.80750000     -69.40660000
S      -47.91780000     -34.98950000     -69.87210000
S      -44.85920000     -36.08950000     -69.28690000
H      -42.50480000     -34.97860000     -69.15520000
