40
Properties=species:S:1:pos:R:3 #=T CELL(abcABC):=T 1.889726e+02=T 90.00000=T Traj:=T positionsangstrom=T Step:=T 0=T Bead:=T pbc="F F F"
C      -44.83890000     -34.91140000     -73.51690000
C      -44.00710000     -33.81870000     -73.20750000
C      -44.55350000     -32.53420000     -73.26950000
C      -45.89720000     -32.31650000     -73.64460000
C      -46.72100000     -33.39300000     -73.90720000
C      -46.17040000     -34.67290000     -73.93540000
H      -44.45720000     -35.93180000     -73.41420000
H      -43.92100000     -31.65300000     -73.28900000
H      -47.71040000     -33.24220000     -74.27130000
H      -46.83640000     -35.48560000     -74.28720000
C      -46.59900000     -30.97580000     -73.64060000
H      -47.36620000     -30.94090000     -74.45160000
H      -45.79030000     -30.15290000     -73.78820000
C      -42.55710000     -34.03300000     -72.99340000
H      -42.49190000     -35.16060000     -72.78390000
H      -42.06930000     -33.91610000     -74.00150000
S      -47.48100000     -30.54000000     -72.02610000
S      -41.75310000     -32.95090000     -71.76380000
C      -46.18830000     -30.37940000     -70.69170000
H      -45.24290000     -30.44000000     -71.24400000
H      -46.29330000     -29.36070000     -70.27450000
C      -42.91520000     -32.12580000     -70.59090000
H      -43.80450000     -31.92980000     -70.99040000
H      -42.51410000     -31.10230000     -70.25640000
C      -43.11710000     -33.03500000     -69.30890000
H      -42.15440000     -33.43450000     -68.97160000
H      -43.41790000     -32.33090000     -68.43370000
C      -46.18470000     -31.39000000     -69.58080000
H      -46.99780000     -31.05370000     -68.92370000
H      -45.25310000     -31.24970000     -69.00670000
C      -46.44380000     -32.78420000     -69.86910000
C      -47.71770000     -33.21350000     -70.15010000
C      -45.52320000     -33.89860000     -69.73500000
H      -48.48740000     -32.58260000     -70.43820000
C      -46.19270000     -35.13660000     -69.94400000
C      -44.13270000     -34.15110000     -69.31550000
C      -43.82910000     -35.45790000     -69.33540000
S      -47.79340000     -34.96580000     -70.38280000
S      -45.17530000     -36.53050000     -69.65650000
H      -42.84820000     -35.92430000     -69.25090000
