40
Properties=species:S:1:pos:R:3 #=T CELL(abcABC):=T 1.889726e+02=T 90.00000=T Traj:=T positionsangstrom=T Step:=T 0=T Bead:=T pbc="F F F"
C      -44.64110000     -35.22460000     -73.03480000
C      -43.89880000     -34.02660000     -73.15270000
C      -44.57160000     -32.83490000     -73.46210000
C      -45.99300000     -32.80830000     -73.59060000
C      -46.70520000     -34.01360000     -73.46540000
C      -46.02530000     -35.19810000     -73.13320000
H      -44.23960000     -36.15320000     -72.67820000
H      -44.08270000     -31.86840000     -73.55980000
H      -47.77130000     -34.08690000     -73.61350000
H      -46.67170000     -36.03880000     -72.94050000
C      -46.79950000     -31.55450000     -73.94020000
H      -47.72550000     -31.72630000     -74.52560000
H      -46.21400000     -30.65040000     -74.50090000
C      -42.44400000     -34.10650000     -73.05370000
H      -42.11910000     -35.07110000     -72.62770000
H      -41.89930000     -33.97450000     -73.96930000
S      -47.58630000     -30.78700000     -72.41890000
S      -41.54790000     -32.84140000     -71.98150000
C      -46.16690000     -30.59690000     -71.24590000
H      -45.25780000     -31.01780000     -71.61880000
H      -45.97370000     -29.50440000     -71.15240000
C      -42.89630000     -31.97220000     -70.93660000
H      -43.69970000     -32.07790000     -71.60270000
H      -42.53580000     -30.90460000     -71.00780000
C      -43.20830000     -32.47150000     -69.54350000
H      -42.27360000     -32.78130000     -69.12480000
H      -43.65200000     -31.65790000     -68.98400000
C      -46.66970000     -31.11580000     -69.88140000
H      -47.63750000     -30.64560000     -69.80130000
H      -46.09100000     -30.74960000     -69.04650000
C      -46.69220000     -32.63490000     -69.83460000
C      -47.90210000     -33.25410000     -69.85450000
C      -45.60040000     -33.58330000     -69.62750000
H      -48.78010000     -32.65970000     -69.95810000
C      -46.14260000     -34.85540000     -69.63390000
C      -44.14440000     -33.62130000     -69.53680000
C      -43.67910000     -34.90630000     -69.51420000
S      -47.85870000     -34.99020000     -69.86790000
S      -44.93760000     -36.13500000     -69.57080000
H      -42.64330000     -35.18670000     -69.37050000
