40
Properties=species:S:1:pos:R:3 #=T CELL(abcABC):=T 1.889726e+02=T 90.00000=T Traj:=T positionsangstrom=T Step:=T 0=T Bead:=T pbc="F F F"
C      -44.87310000     -34.71610000     -73.56200000
C      -44.06250000     -33.64480000     -73.21060000
C      -44.65050000     -32.38470000     -73.29330000
C      -46.03190000     -32.23700000     -73.58120000
C      -46.83930000     -33.31900000     -73.86540000
C      -46.23390000     -34.58710000     -73.86410000
H      -44.45930000     -35.68070000     -73.65970000
H      -44.07010000     -31.46120000     -73.12570000
H      -47.94370000     -33.17080000     -74.01000000
H      -46.84450000     -35.47040000     -74.05590000
C      -46.54820000     -30.75940000     -73.51100000
H      -47.25520000     -30.59400000     -74.33170000
H      -45.78850000     -29.96130000     -73.66450000
C      -42.61160000     -33.97630000     -72.92350000
H      -42.53530000     -34.99560000     -72.51960000
H      -42.03360000     -33.90410000     -73.80300000
S      -47.48790000     -30.45580000     -71.98080000
S      -41.67890000     -32.95620000     -71.68930000
C      -46.01150000     -30.44920000     -70.80310000
H      -45.16920000     -30.76410000     -71.40490000
H      -45.79110000     -29.40600000     -70.54250000
C      -42.84180000     -32.38000000     -70.45270000
H      -43.76560000     -32.18100000     -70.92970000
H      -42.38350000     -31.40550000     -70.18530000
C      -43.06020000     -33.18070000     -69.13480000
H      -42.10540000     -33.61170000     -68.78800000
H      -43.25940000     -32.46120000     -68.41010000
C      -46.08000000     -31.41480000     -69.62900000
H      -46.89020000     -31.08890000     -68.98560000
H      -45.18660000     -31.45290000     -69.04450000
C      -46.35580000     -32.88620000     -69.96930000
C      -47.64440000     -33.24460000     -70.33030000
C      -45.55620000     -33.99980000     -69.62470000
H      -48.55820000     -32.66500000     -70.37750000
C      -46.25160000     -35.18190000     -69.98160000
C      -44.16440000     -34.26510000     -69.30160000
C      -43.78930000     -35.52690000     -69.39130000
S      -47.85770000     -34.95490000     -70.48750000
S      -45.19750000     -36.63960000     -69.78270000
H      -42.79580000     -35.89050000     -69.16830000
