40
Properties=species:S:1:pos:R:3 #=T CELL(abcABC):=T 1.889726e+02=T 90.00000=T Traj:=T positionsangstrom=T Step:=T 0=T Bead:=T pbc="F F F"
C      -43.28890000     -35.26480000     -73.71100000
C      -43.18420000     -33.83500000     -73.88710000
C      -44.28380000     -33.04460000     -74.28190000
C      -45.48020000     -33.65890000     -74.64080000
C      -45.59860000     -35.03810000     -74.53060000
C      -44.52540000     -35.84000000     -74.02410000
H      -42.53970000     -35.87110000     -73.19400000
H      -44.30800000     -31.93080000     -74.23930000
H      -46.46560000     -35.58050000     -74.88030000
H      -44.70460000     -36.92590000     -74.00030000
C      -46.53580000     -32.69790000     -75.15150000
H      -47.49120000     -33.24320000     -75.30300000
H      -46.23300000     -32.28440000     -76.17360000
C      -41.91670000     -33.15160000     -73.40350000
H      -41.23000000     -33.97840000     -73.12720000
H      -41.38660000     -32.61860000     -74.20780000
S      -46.99960000     -31.27600000     -73.98040000
S      -42.21210000     -31.99540000     -72.00550000
C      -47.61920000     -32.16500000     -72.45820000
H      -48.63850000     -31.68230000     -72.26810000
H      -47.91240000     -33.20810000     -72.69990000
C      -43.10900000     -33.12100000     -70.88110000
H      -42.57880000     -34.05560000     -70.63830000
H      -43.99350000     -33.43060000     -71.39460000
C      -43.49700000     -32.37270000     -69.61030000
H      -42.69830000     -32.10580000     -68.89670000
H      -43.88250000     -31.41620000     -69.84850000
C      -46.58740000     -32.07170000     -71.28840000
H      -46.60970000     -31.12760000     -70.80070000
H      -45.61490000     -32.11430000     -71.75820000
C      -46.79390000     -33.07270000     -70.19830000
C      -48.04370000     -33.55180000     -70.00460000
C      -45.87940000     -33.47340000     -69.14530000
H      -48.88050000     -33.48450000     -70.73270000
C      -46.55070000     -34.18690000     -68.16190000
C      -44.47310000     -33.27240000     -68.84970000
C      -44.19550000     -33.95730000     -67.66440000
S      -48.17350000     -34.49240000     -68.57010000
S      -45.55200000     -34.72970000     -66.88820000
H      -43.26950000     -34.06070000     -67.15360000
