40
Properties=species:S:1:pos:R:3 #=T CELL(abcABC):=T 1.889726e+02=T 90.00000=T Traj:=T positionsangstrom=T Step:=T 0=T Bead:=T pbc="F F F"
C      -43.35600000     -35.12390000     -73.83890000
C      -43.36670000     -33.74360000     -74.01250000
C      -44.48870000     -33.06960000     -74.50940000
C      -45.73110000     -33.80040000     -74.75870000
C      -45.78480000     -35.18180000     -74.46470000
C      -44.58670000     -35.80230000     -74.07370000
H      -42.39380000     -35.61600000     -73.60240000
H      -44.42110000     -32.00560000     -74.58760000
H      -46.70750000     -35.78300000     -74.68770000
H      -44.57160000     -36.86220000     -73.79950000
C      -47.02350000     -32.94390000     -75.07130000
H      -47.92210000     -33.61010000     -75.11360000
H      -46.90380000     -32.52510000     -76.06740000
C      -42.10580000     -32.88610000     -73.79920000
H      -41.20440000     -33.50560000     -73.99170000
H      -42.20230000     -32.05840000     -74.53500000
S      -47.28130000     -31.51870000     -73.97620000
S      -41.89760000     -32.22490000     -72.09020000
C      -47.68920000     -32.21660000     -72.36120000
H      -48.18750000     -31.49150000     -71.66620000
H      -48.53930000     -32.92090000     -72.59970000
C      -42.78110000     -33.33930000     -70.88420000
H      -42.12670000     -34.00690000     -70.35460000
H      -43.49550000     -33.96640000     -71.47010000
C      -43.52720000     -32.47260000     -69.94170000
H      -42.82510000     -31.93170000     -69.32650000
H      -44.18620000     -31.78980000     -70.54100000
C      -46.47090000     -32.68150000     -71.52650000
H      -45.79160000     -31.80130000     -71.38630000
H      -45.85410000     -33.44050000     -71.98780000
C      -46.85690000     -33.16040000     -70.15990000
C      -48.11740000     -33.44820000     -69.74180000
C      -45.84110000     -33.47250000     -69.14170000
H      -48.98440000     -33.24440000     -70.30420000
C      -46.41220000     -34.07290000     -67.98830000
C      -44.37830000     -33.24840000     -68.98880000
C      -43.90640000     -33.78760000     -67.79450000
S      -48.24560000     -34.00730000     -68.11140000
S      -45.16570000     -34.45440000     -66.76160000
H      -42.89260000     -33.66760000     -67.47860000
