40
Properties=species:S:1:pos:R:3 #=T CELL(abcABC):=T 1.889726e+02=T 90.00000=T Traj:=T positionsangstrom=T Step:=T 0=T Bead:=T pbc="F F F"
C      -44.31430000     -35.01560000     -72.83550000
C      -43.83050000     -33.76150000     -73.35190000
C      -44.79000000     -32.85100000     -73.78610000
C      -46.19310000     -33.15420000     -73.67480000
C      -46.63420000     -34.38900000     -73.20280000
C      -45.67720000     -35.31560000     -72.80050000
H      -43.59430000     -35.82440000     -72.66470000
H      -44.37310000     -31.94030000     -74.16200000
H      -47.75130000     -34.63630000     -73.23210000
H      -46.01430000     -36.34600000     -72.56540000
C      -47.14320000     -32.09350000     -74.11840000
H      -48.08720000     -32.48560000     -74.35280000
H      -46.82700000     -31.54500000     -74.96540000
C      -42.34910000     -33.53560000     -73.34890000
H      -41.80320000     -34.37000000     -73.85730000
H      -42.10500000     -32.58530000     -73.87670000
S      -47.64090000     -31.00170000     -72.70810000
S      -41.78020000     -33.61690000     -71.62710000
C      -46.21040000     -30.59890000     -71.65310000
H      -45.24870000     -31.06250000     -72.04380000
H      -46.19140000     -29.51480000     -71.67620000
C      -42.54990000     -32.04880000     -71.10480000
H      -43.31100000     -31.77670000     -71.80840000
H      -41.71710000     -31.27570000     -71.11770000
C      -43.25970000     -32.12660000     -69.73250000
H      -42.58840000     -32.06040000     -68.85480000
H      -43.87760000     -31.21500000     -69.73370000
C      -46.52270000     -31.02430000     -70.23620000
H      -47.50720000     -30.49210000     -70.11770000
H      -45.95450000     -30.62210000     -69.36710000
C      -46.73410000     -32.43560000     -70.07570000
C      -47.96410000     -33.09170000     -70.03330000
C      -45.68980000     -33.38700000     -69.80020000
H      -48.99360000     -32.67640000     -70.42470000
C      -46.08250000     -34.68180000     -69.49540000
C      -44.19070000     -33.33600000     -69.58950000
C      -43.65900000     -34.55530000     -69.25180000
S      -47.84570000     -34.83450000     -69.64860000
S      -44.82750000     -35.86510000     -69.12410000
H      -42.70650000     -34.76880000     -68.86710000
