40
Properties=species:S:1:pos:R:3 #=T CELL(abcABC):=T 1.889726e+02=T 90.00000=T Traj:=T positionsangstrom=T Step:=T 0=T Bead:=T pbc="F F F"
C      -42.54380000     -34.58030000     -73.57620000
C      -42.39010000     -33.36800000     -72.93620000
C      -43.21080000     -32.30050000     -73.40480000
C      -44.17590000     -32.48710000     -74.40100000
C      -44.21980000     -33.70920000     -75.08770000
C      -43.39930000     -34.76990000     -74.61050000
H      -41.88330000     -35.42310000     -73.37510000
H      -43.16990000     -31.44600000     -72.85770000
H      -45.04210000     -33.84410000     -75.82040000
H      -43.39390000     -35.77790000     -75.05740000
C      -44.95000000     -31.21290000     -74.87090000
H      -45.49920000     -31.47080000     -75.82520000
H      -44.19950000     -30.47710000     -75.07570000
C      -41.22660000     -33.05300000     -72.01690000
H      -40.68890000     -33.92640000     -72.03690000
H      -40.66300000     -32.16010000     -72.41000000
S      -46.26550000     -30.48610000     -73.71140000
S      -41.75800000     -32.56130000     -70.31500000
C      -47.02330000     -32.13290000     -73.15810000
H      -48.12980000     -32.03690000     -73.11240000
H      -46.67580000     -32.79390000     -73.95970000
C      -43.24580000     -33.62670000     -69.94560000
H      -42.95150000     -34.62030000     -69.52070000
H      -43.76790000     -33.82590000     -70.84110000
C      -44.25930000     -32.95940000     -69.07610000
H      -43.83990000     -32.69020000     -68.10770000
H      -44.44110000     -31.99850000     -69.64050000
C      -46.41120000     -32.61660000     -71.86560000
H      -46.12910000     -31.83490000     -71.10070000
H      -45.43240000     -33.06580000     -72.10880000
C      -47.19330000     -33.63330000     -71.00200000
C      -48.40310000     -34.19160000     -71.29170000
C      -46.76640000     -33.95950000     -69.63100000
H      -48.95080000     -33.88820000     -72.18050000
C      -47.70720000     -34.79420000     -68.97550000
C      -45.56860000     -33.75810000     -68.84680000
C      -45.72080000     -34.32900000     -67.61420000
S      -49.06820000     -35.19640000     -69.96190000
S      -47.29500000     -35.22040000     -67.34460000
H      -44.96500000     -34.28270000     -66.84380000
