40
Properties=species:S:1:pos:R:3 #=T CELL(abcABC):=T 1.889726e+02=T 90.00000=T Traj:=T positionsangstrom=T Step:=T 0=T Bead:=T pbc="F F F"
C      -47.38600000     -35.36400000     -71.09580000
C      -48.17580000     -34.43980000     -71.81870000
C      -47.71570000     -34.00790000     -73.09800000
C      -46.55280000     -34.52900000     -73.62640000
C      -45.78830000     -35.46550000     -72.89180000
C      -46.16670000     -35.85790000     -71.60480000
H      -47.67810000     -35.57870000     -70.02950000
H      -48.31590000     -33.34830000     -73.68340000
H      -44.86880000     -35.84610000     -73.41200000
H      -45.55350000     -36.51550000     -70.92980000
C      -46.13410000     -34.11830000     -75.02640000
H      -46.80420000     -33.86110000     -75.82610000
H      -45.39340000     -34.78660000     -75.49140000
C      -49.39230000     -33.83900000     -71.19380000
H      -50.21290000     -33.78460000     -71.84380000
H      -49.67410000     -34.29900000     -70.27220000
S      -45.16690000     -32.45410000     -74.93550000
S      -48.98280000     -32.04100000     -70.90340000
C      -43.85510000     -32.81460000     -73.72580000
H      -44.08580000     -33.75690000     -73.19540000
H      -42.92290000     -33.00000000     -74.27500000
C      -47.56330000     -32.15670000     -69.70990000
H      -47.74460000     -33.01610000     -69.08790000
H      -47.71720000     -31.32790000     -68.98410000
C      -46.16420000     -32.08060000     -70.37050000
H      -46.27840000     -32.31580000     -71.40140000
H      -45.81680000     -31.03290000     -70.39440000
C      -43.64560000     -31.71200000     -72.62840000
H      -44.58530000     -31.18460000     -72.35490000
H      -42.96050000     -30.89090000     -73.02310000
C      -43.00610000     -32.35560000     -71.29010000
C      -41.64230000     -32.61540000     -71.22790000
C      -43.73980000     -32.83970000     -70.11680000
H      -40.97250000     -32.24710000     -71.95830000
C      -42.86990000     -33.55110000     -69.22800000
C      -45.09410000     -32.88240000     -69.68030000
C      -45.23620000     -33.58780000     -68.45650000
S      -41.25390000     -33.43810000     -69.77060000
S      -43.71910000     -34.35180000     -67.97110000
H      -46.12770000     -33.69500000     -67.99100000
