40
Properties=species:S:1:pos:R:3 #=T CELL(abcABC):=T 1.889726e+02=T 90.00000=T Traj:=T positionsangstrom=T Step:=T 0=T Bead:=T pbc="F F F"
C      -42.95390000     -34.87540000     -73.75930000
C      -42.74880000     -33.57160000     -73.43840000
C      -43.63820000     -32.53780000     -73.87670000
C      -44.77800000     -32.83270000     -74.65300000
C      -45.00200000     -34.19080000     -74.95300000
C      -44.19520000     -35.17880000     -74.44300000
H      -42.36030000     -35.66460000     -73.35560000
H      -43.41480000     -31.54000000     -73.73970000
H      -45.80580000     -34.43570000     -75.55790000
H      -44.50110000     -36.21130000     -74.70740000
C      -45.69510000     -31.85500000     -75.20850000
H      -46.44060000     -32.48780000     -75.69460000
H      -45.32150000     -31.17400000     -75.89590000
C      -41.51470000     -33.25020000     -72.58540000
H      -40.84360000     -34.08970000     -72.40200000
H      -40.86800000     -32.56290000     -73.12610000
S      -46.53830000     -30.71520000     -73.94320000
S      -41.87200000     -32.41340000     -71.00670000
C      -47.29000000     -31.93600000     -72.71500000
H      -48.19270000     -31.40690000     -72.44260000
H      -47.55960000     -32.83870000     -73.28790000
C      -43.13840000     -33.44440000     -70.20590000
H      -42.69640000     -34.26970000     -69.65820000
H      -43.84580000     -33.92130000     -70.88540000
C      -43.98040000     -32.65770000     -69.16450000
H      -43.32620000     -32.32620000     -68.35260000
H      -44.32510000     -31.73690000     -69.67950000
C      -46.33160000     -32.37780000     -71.58740000
H      -45.98240000     -31.52900000     -70.99650000
H      -45.43290000     -32.83320000     -72.02200000
C      -46.97620000     -33.34710000     -70.53170000
C      -48.21550000     -33.89750000     -70.66110000
C      -46.39360000     -33.71800000     -69.29310000
H      -48.73030000     -33.92490000     -71.66010000
C      -47.22450000     -34.56420000     -68.58210000
C      -45.11280000     -33.53930000     -68.69510000
C      -45.07710000     -34.19900000     -67.49870000
S      -48.70560000     -34.94850000     -69.38850000
S      -46.45470000     -35.15050000     -67.14520000
H      -44.08540000     -34.28750000     -67.08470000
