40
Properties=species:S:1:pos:R:3 #=T CELL(abcABC):=T 1.889726e+02=T 90.00000=T Traj:=T positionsangstrom=T Step:=T 0=T Bead:=T pbc="F F F"
C      -44.51660000     -35.43610000     -72.21510000
C      -44.12800000     -34.56020000     -73.22900000
C      -45.14430000     -33.81180000     -73.88590000
C      -46.45130000     -33.90050000     -73.39170000
C      -46.77480000     -34.82360000     -72.37450000
C      -45.81780000     -35.66020000     -71.83120000
H      -43.76510000     -35.92920000     -71.65270000
H      -44.75540000     -33.16790000     -74.61580000
H      -47.82480000     -34.89460000     -72.05070000
H      -46.07310000     -36.35330000     -71.02570000
C      -47.62570000     -33.17660000     -74.06560000
H      -48.46160000     -33.93800000     -74.05410000
H      -47.42450000     -32.80830000     -75.09790000
C      -42.64230000     -34.38570000     -73.62040000
H      -42.14800000     -35.31070000     -73.79340000
H      -42.63910000     -33.81730000     -74.49000000
S      -47.97550000     -31.57090000     -73.11680000
S      -41.72600000     -33.75920000     -72.15360000
C      -46.33870000     -30.96430000     -72.52980000
H      -45.59780000     -31.64300000     -72.82370000
H      -46.10400000     -29.99750000     -73.05420000
C      -42.61460000     -32.14310000     -71.89350000
H      -43.43120000     -32.19900000     -72.57350000
H      -41.94530000     -31.30180000     -72.28220000
C      -42.98910000     -31.95060000     -70.38900000
H      -41.97690000     -31.96870000     -70.01890000
H      -43.48010000     -30.90560000     -70.18680000
C      -46.09850000     -30.65530000     -71.01620000
H      -46.76410000     -29.85770000     -70.67810000
H      -45.08350000     -30.17570000     -70.92840000
C      -46.35590000     -31.88090000     -70.21610000
C      -47.60920000     -32.39860000     -70.01380000
C      -45.38990000     -32.86650000     -69.82660000
H      -48.58670000     -31.89700000     -70.20110000
C      -45.91520000     -33.98930000     -69.15370000
C      -43.92240000     -32.96400000     -69.83850000
C      -43.45140000     -34.01170000     -69.06170000
S      -47.63030000     -33.91360000     -69.03450000
S      -44.76920000     -35.09720000     -68.48820000
H      -42.48480000     -34.18270000     -68.67920000
