40
Properties=species:S:1:pos:R:3 #=T CELL(abcABC):=T 1.889726e+02=T 90.00000=T Traj:=T positionsangstrom=T Step:=T 0=T Bead:=T pbc="F F F"
C      -42.53630000     -34.64620000     -73.41700000
C      -42.43750000     -33.40640000     -72.74490000
C      -43.03420000     -32.26320000     -73.32890000
C      -43.78470000     -32.33570000     -74.44180000
C      -43.97220000     -33.55340000     -75.04230000
C      -43.31590000     -34.70390000     -74.58700000
H      -41.84240000     -35.42510000     -73.24310000
H      -43.03880000     -31.26720000     -72.70720000
H      -44.58350000     -33.73320000     -75.92470000
H      -43.40040000     -35.48330000     -75.27690000
C      -44.46100000     -31.12360000     -75.02110000
H      -44.88950000     -31.33330000     -76.00360000
H      -43.69350000     -30.35420000     -74.99250000
C      -41.52700000     -33.30000000     -71.53090000
H      -41.30720000     -34.30480000     -71.15780000
H      -40.65340000     -32.73770000     -71.88440000
S      -45.81700000     -30.54940000     -73.73740000
S      -42.23750000     -32.35620000     -70.08310000
C      -46.65400000     -32.05660000     -73.07980000
H      -47.69540000     -31.88820000     -73.36590000
H      -46.18280000     -32.94730000     -73.60130000
C      -43.52900000     -33.59620000     -69.73250000
H      -43.14680000     -34.45240000     -69.20460000
H      -43.99200000     -33.92380000     -70.66320000
C      -44.56900000     -32.97250000     -68.73300000
H      -44.16720000     -32.91520000     -67.70030000
H      -44.82850000     -31.92820000     -68.94610000
C      -46.41530000     -32.18650000     -71.51680000
H      -46.71010000     -31.28310000     -70.98980000
H      -45.35860000     -32.18250000     -71.40070000
C      -47.14590000     -33.30070000     -70.91590000
C      -48.36320000     -33.79940000     -71.45170000
C      -46.89080000     -33.89160000     -69.58960000
H      -48.85560000     -33.48340000     -72.39130000
C      -47.81600000     -34.88310000     -69.23960000
C      -45.78510000     -33.85410000     -68.63040000
C      -45.89730000     -34.79760000     -67.62920000
S      -49.02830000     -35.14270000     -70.48030000
S      -47.42020000     -35.75140000     -67.77150000
H      -45.12450000     -34.91620000     -66.89310000
