40
Properties=species:S:1:pos:R:3 #=T CELL(abcABC):=T 1.889726e+02=T 90.00000=T Traj:=T positionsangstrom=T Step:=T 0=T Bead:=T pbc="F F F"
C      -47.63750000     -35.36970000     -71.30660000
C      -48.17030000     -34.22400000     -72.01800000
C      -47.57730000     -33.85240000     -73.20730000
C      -46.50070000     -34.62760000     -73.75500000
C      -46.03900000     -35.73000000     -73.07780000
C      -46.52000000     -36.05250000     -71.79350000
H      -48.18830000     -35.48560000     -70.44860000
H      -47.90760000     -32.91970000     -73.71930000
H      -45.24970000     -36.24190000     -73.54280000
H      -46.05760000     -36.86500000     -71.22490000
C      -45.84900000     -34.13000000     -75.05740000
H      -46.66240000     -34.09120000     -75.78020000
H      -45.15910000     -34.87550000     -75.39980000
C      -49.43480000     -33.59810000     -71.58850000
H      -50.05760000     -33.29320000     -72.44050000
H      -50.02950000     -34.18600000     -70.91920000
S      -45.11830000     -32.49110000     -74.81160000
S      -49.05490000     -32.02510000     -70.59970000
C      -43.83730000     -32.75450000     -73.56910000
H      -44.05980000     -33.70740000     -73.06540000
H      -42.85360000     -32.79550000     -74.09460000
C      -47.57120000     -32.40570000     -69.49440000
H      -47.70780000     -33.39800000     -69.11620000
H      -47.59430000     -31.72490000     -68.67260000
C      -46.27610000     -32.15570000     -70.23730000
H      -46.34320000     -32.57900000     -71.29180000
H      -46.08810000     -31.10910000     -70.39090000
C      -43.73810000     -31.67130000     -72.49910000
H      -44.79910000     -31.40240000     -72.21820000
H      -43.18340000     -30.76010000     -72.88900000
C      -42.97730000     -32.23210000     -71.24580000
C      -41.62920000     -32.52600000     -71.30760000
C      -43.66940000     -32.84640000     -70.09130000
H      -41.01710000     -32.20520000     -72.13960000
C      -42.80170000     -33.60330000     -69.34250000
C      -45.08740000     -32.82650000     -69.56580000
C      -45.08320000     -33.42640000     -68.34100000
S      -41.18870000     -33.60160000     -69.99660000
S      -43.62230000     -34.21410000     -67.87920000
H      -45.93240000     -33.55840000     -67.69940000
