40
Properties=species:S:1:pos:R:3 #=T CELL(abcABC):=T 1.889726e+02=T 90.00000=T Traj:=T positionsangstrom=T Step:=T 0=T Bead:=T pbc="F F F"
C      -41.94470000     -33.79350000     -73.28060000
C      -42.11650000     -32.61610000     -72.54320000
C      -43.03290000     -31.60840000     -72.86590000
C      -43.93890000     -31.83940000     -73.87540000
C      -43.91320000     -33.01140000     -74.56230000
C      -42.86030000     -34.00050000     -74.31080000
H      -41.31220000     -34.62030000     -72.99630000
H      -43.12240000     -30.71830000     -72.25290000
H      -44.55690000     -33.14850000     -75.36150000
H      -42.85700000     -34.94300000     -74.79100000
C      -44.91700000     -30.80620000     -74.36150000
H      -45.36120000     -31.30230000     -75.15420000
H      -44.40250000     -29.93660000     -74.79460000
C      -41.23420000     -32.46000000     -71.31350000
H      -40.57630000     -33.36320000     -71.30050000
H      -40.72120000     -31.47970000     -71.29620000
S      -46.10140000     -30.18820000     -73.07290000
S      -42.28000000     -32.31050000     -69.76570000
C      -47.16580000     -31.58130000     -72.60680000
H      -48.24050000     -31.16730000     -72.53420000
H      -47.22250000     -32.36200000     -73.32360000
C      -43.55970000     -33.64430000     -70.05850000
H      -43.13650000     -34.64300000     -70.05910000
H      -43.99030000     -33.45770000     -71.05010000
C      -44.57640000     -33.55040000     -68.97750000
H      -44.06730000     -33.63340000     -68.00300000
H      -45.13100000     -32.57320000     -68.88860000
C      -46.61420000     -32.19210000     -71.31240000
H      -46.56150000     -31.54040000     -70.36760000
H      -45.55410000     -32.37370000     -71.54840000
C      -47.39160000     -33.43290000     -70.93980000
C      -48.62410000     -33.81600000     -71.41940000
C      -46.84550000     -34.41640000     -69.98780000
H      -49.17160000     -33.33330000     -72.26210000
C      -47.66470000     -35.55420000     -69.87380000
C      -45.65900000     -34.58270000     -69.13100000
C      -45.70030000     -35.74390000     -68.41080000
S      -49.11990000     -35.40800000     -70.86420000
S      -47.09830000     -36.77250000     -68.75270000
H      -44.88510000     -36.06370000     -67.72510000
