40
Properties=species:S:1:pos:R:3 #=T CELL(abcABC):=T 1.889726e+02=T 90.00000=T Traj:=T positionsangstrom=T Step:=T 0=T Bead:=T pbc="F F F"
C      -41.79570000     -33.29830000     -73.48050000
C      -42.21520000     -32.33730000     -72.53890000
C      -43.38480000     -31.60880000     -72.78000000
C      -44.03930000     -31.74030000     -74.03830000
C      -43.63540000     -32.75210000     -74.93210000
C      -42.58300000     -33.55120000     -74.61060000
H      -40.92010000     -33.88240000     -73.22550000
H      -43.72430000     -30.88100000     -71.99140000
H      -44.25450000     -32.97910000     -75.88630000
H      -42.36250000     -34.35420000     -75.29540000
C      -45.19870000     -30.83420000     -74.41020000
H      -46.05860000     -31.26770000     -74.93760000
H      -44.90030000     -30.08850000     -75.12910000
C      -41.48790000     -32.19330000     -71.30430000
H      -40.67250000     -32.96080000     -71.19160000
H      -40.96110000     -31.16260000     -71.29610000
S      -45.97410000     -30.12370000     -72.90220000
S      -42.45150000     -32.24360000     -69.77210000
C      -47.14130000     -31.46550000     -72.31410000
H      -48.02670000     -31.07700000     -71.98840000
H      -47.38380000     -32.03030000     -73.21030000
C      -43.35410000     -33.89100000     -69.89280000
H      -42.60490000     -34.62760000     -69.59240000
H      -43.65800000     -34.03910000     -70.92300000
C      -44.48500000     -33.84800000     -68.88590000
H      -44.03960000     -34.10620000     -67.94620000
H      -44.87700000     -32.86580000     -68.83950000
C      -46.54150000     -32.29940000     -71.20280000
H      -46.33590000     -31.69650000     -70.29010000
H      -45.58020000     -32.67820000     -71.61750000
C      -47.35700000     -33.52690000     -70.82460000
C      -48.55110000     -33.85210000     -71.44620000
C      -46.83320000     -34.59080000     -69.92750000
H      -49.18240000     -33.16010000     -71.94970000
C      -47.74010000     -35.65850000     -69.83270000
C      -45.61510000     -34.88000000     -69.20010000
C      -45.58550000     -36.14050000     -68.63070000
S      -49.12330000     -35.39520000     -70.81260000
S      -47.14880000     -36.99270000     -68.82190000
H      -44.77680000     -36.54580000     -68.04470000
