40
Properties=species:S:1:pos:R:3 #=T CELL(abcABC):=T 1.889726e+02=T 90.00000=T Traj:=T positionsangstrom=T Step:=T 0=T Bead:=T pbc="F F F"
C      -42.58750000     -34.16590000     -73.04850000
C      -42.23060000     -32.89000000     -72.56370000
C      -42.85850000     -31.75430000     -73.04240000
C      -43.84970000     -31.89520000     -74.06700000
C      -44.17400000     -33.17950000     -74.56930000
C      -43.55200000     -34.29140000     -74.00250000
H      -42.19970000     -34.97140000     -72.45560000
H      -42.59210000     -30.80680000     -72.62470000
H      -44.94280000     -33.18860000     -75.43320000
H      -43.98830000     -35.31160000     -74.25020000
C      -44.65500000     -30.66230000     -74.50480000
H      -45.21590000     -30.80530000     -75.45830000
H      -44.07680000     -29.82120000     -74.53540000
C      -41.36760000     -32.94710000     -71.32490000
H      -40.96170000     -33.96810000     -71.18040000
H      -40.50270000     -32.34520000     -71.53820000
S      -45.95940000     -30.17260000     -73.19560000
S      -42.19120000     -32.43660000     -69.72490000
C      -46.78470000     -31.81740000     -72.89820000
H      -47.82080000     -31.89640000     -73.33110000
H      -46.21130000     -32.67770000     -73.44890000
C      -43.42640000     -33.81950000     -69.57940000
H      -43.03180000     -34.70060000     -69.07010000
H      -43.71190000     -34.18620000     -70.52150000
C      -44.65780000     -33.25440000     -68.88840000
H      -44.57590000     -33.19180000     -67.76370000
H      -44.94650000     -32.25660000     -69.25410000
C      -46.74870000     -32.04200000     -71.37660000
H      -47.17550000     -31.15720000     -70.87980000
H      -45.68400000     -32.01810000     -71.11520000
C      -47.31460000     -33.31060000     -70.94090000
C      -48.52920000     -33.71100000     -71.47470000
C      -46.88010000     -34.24020000     -69.92840000
H      -49.13350000     -33.22450000     -72.16250000
C      -47.65040000     -35.37150000     -69.87090000
C      -45.74090000     -34.23610000     -69.00980000
C      -45.70140000     -35.45590000     -68.40790000
S      -49.05940000     -35.27800000     -70.92080000
S      -47.00690000     -36.59430000     -68.77020000
H      -44.95570000     -35.72160000     -67.68550000
