40
Properties=species:S:1:pos:R:3 #=T CELL(abcABC):=T 1.889726e+02=T 90.00000=T Traj:=T positionsangstrom=T Step:=T 0=T Bead:=T pbc="F F F"
C      -44.97150000     -36.30910000     -71.39940000
C      -44.79530000     -35.88870000     -72.70480000
C      -45.91280000     -35.20660000     -73.31730000
C      -47.12880000     -35.01380000     -72.65980000
C      -47.29520000     -35.40990000     -71.35150000
C      -46.24050000     -36.09890000     -70.78370000
H      -44.18260000     -36.82730000     -70.91820000
H      -45.84890000     -34.73870000     -74.32660000
H      -48.30680000     -35.29190000     -70.84080000
H      -46.31810000     -36.52320000     -69.76930000
C      -48.26930000     -34.31030000     -73.36830000
H      -49.13370000     -34.94130000     -73.17030000
H      -48.09940000     -34.23920000     -74.42910000
C      -43.46140000     -35.87220000     -73.42660000
H      -42.90380000     -36.74200000     -73.16610000
H      -43.63010000     -36.05590000     -74.51460000
S      -48.59250000     -32.56840000     -72.78620000
S      -42.42690000     -34.39750000     -73.11640000
C      -47.02610000     -31.67010000     -73.02490000
H      -46.26980000     -32.34680000     -73.30410000
H      -47.17820000     -30.91380000     -73.83930000
C      -43.58340000     -32.92240000     -73.25350000
H      -44.57750000     -33.30650000     -73.09000000
H      -43.48440000     -32.42440000     -74.25260000
C      -43.33510000     -31.71630000     -72.31500000
H      -42.36040000     -31.26570000     -72.46020000
H      -43.98860000     -30.93270000     -72.63970000
C      -46.56420000     -30.85140000     -71.75200000
H      -47.43930000     -30.20220000     -71.46690000
H      -45.70170000     -30.16350000     -72.06360000
C      -46.16620000     -31.59240000     -70.57020000
C      -47.03450000     -31.87360000     -69.54110000
C      -44.85130000     -32.15780000     -70.17550000
H      -48.10960000     -31.74890000     -69.48380000
C      -44.78400000     -32.65670000     -68.87750000
C      -43.51440000     -31.97360000     -70.77370000
C      -42.46880000     -32.32830000     -69.97600000
S      -46.28660000     -32.52710000     -68.08600000
S      -43.11270000     -32.91760000     -68.34990000
H      -41.42760000     -32.17690000     -70.37160000
