40
Properties=species:S:1:pos:R:3 #=T CELL(abcABC):=T 1.889726e+02=T 90.00000=T Traj:=T positionsangstrom=T Step:=T 0=T Bead:=T pbc="F F F"
C      -41.95090000     -33.01520000     -73.35650000
C      -42.15540000     -32.00000000     -72.42360000
C      -43.24630000     -31.15020000     -72.70730000
C      -44.07040000     -31.32700000     -73.83250000
C      -43.86900000     -32.48310000     -74.64700000
C      -42.70100000     -33.21780000     -74.48740000
H      -41.08310000     -33.74900000     -73.18390000
H      -43.52310000     -30.41800000     -72.01570000
H      -44.58410000     -32.66830000     -75.43020000
H      -42.52690000     -34.11680000     -75.10940000
C      -45.19130000     -30.37280000     -74.09710000
H      -45.75240000     -30.59570000     -74.98160000
H      -44.88230000     -29.37260000     -74.29500000
C      -41.34950000     -31.85510000     -71.19410000
H      -40.37630000     -32.53650000     -71.28670000
H      -40.96650000     -30.81840000     -71.04950000
S      -46.42560000     -30.05890000     -72.72140000
S      -42.20610000     -32.48260000     -69.66930000
C      -47.23340000     -31.77560000     -72.58920000
H      -48.32280000     -31.69620000     -72.70020000
H      -46.95310000     -32.36790000     -73.39100000
C      -43.36020000     -33.84020000     -70.11030000
H      -42.87330000     -34.79730000     -70.16880000
H      -43.75480000     -33.49460000     -71.08510000
C      -44.60340000     -33.76270000     -69.17700000
H      -44.21600000     -33.78460000     -68.20020000
H      -45.13390000     -32.81840000     -69.29450000
C      -46.70840000     -32.42430000     -71.27040000
H      -46.94500000     -31.76740000     -70.35840000
H      -45.63330000     -32.52320000     -71.40710000
C      -47.41340000     -33.80020000     -70.92410000
C      -48.57440000     -34.24820000     -71.56340000
C      -46.86040000     -34.74950000     -70.02990000
H      -49.20570000     -33.78950000     -72.34290000
C      -47.65910000     -35.84690000     -69.91140000
C      -45.58810000     -34.89860000     -69.36620000
C      -45.49080000     -36.05540000     -68.64470000
S      -48.98800000     -35.88690000     -70.99150000
S      -46.86230000     -37.03060000     -68.87000000
H      -44.70460000     -36.30740000     -67.90610000
