40
Properties=species:S:1:pos:R:3 #=T CELL(abcABC):=T 1.889726e+02=T 90.00000=T Traj:=T positionsangstrom=T Step:=T 0=T Bead:=T pbc="F F F"
C      -45.37110000     -36.32260000     -71.45720000
C      -45.13320000     -35.68170000     -72.66370000
C      -46.18730000     -35.11140000     -73.35730000
C      -47.46770000     -35.13610000     -72.78950000
C      -47.66910000     -35.76150000     -71.54840000
C      -46.64660000     -36.40350000     -70.88950000
H      -44.48990000     -36.74810000     -70.86990000
H      -45.95910000     -34.68090000     -74.33730000
H      -48.62960000     -35.77090000     -71.15940000
H      -46.77820000     -36.80700000     -69.85550000
C      -48.63790000     -34.34890000     -73.32990000
H      -49.61060000     -34.84870000     -73.11450000
H      -48.51090000     -34.19240000     -74.42960000
C      -43.66370000     -35.58950000     -73.23850000
H      -43.10770000     -36.52660000     -73.06620000
H      -43.77370000     -35.46610000     -74.34820000
S      -48.74620000     -32.78100000     -72.30900000
S      -42.56990000     -34.23150000     -72.62600000
C      -47.22530000     -31.93820000     -72.81940000
H      -46.48600000     -32.69630000     -73.31410000
H      -47.62410000     -31.32070000     -73.59140000
C      -43.47840000     -32.75980000     -73.37280000
H      -44.51650000     -32.82880000     -73.37640000
H      -43.00600000     -32.64370000     -74.36520000
C      -43.04180000     -31.49560000     -72.47180000
H      -42.02020000     -31.17810000     -72.70750000
H      -43.70770000     -30.69930000     -72.93220000
C      -46.56980000     -31.03350000     -71.81890000
H      -47.29910000     -30.26090000     -71.54360000
H      -45.82580000     -30.45930000     -72.31010000
C      -45.95570000     -31.74000000     -70.63130000
C      -46.77980000     -32.03640000     -69.58590000
C      -44.58820000     -32.04960000     -70.41750000
H      -47.85550000     -31.98610000     -69.69780000
C      -44.45100000     -32.59940000     -69.11680000
C      -43.27150000     -31.73390000     -70.99190000
C      -42.19810000     -31.92570000     -70.14430000
S      -45.94800000     -32.75360000     -68.23800000
S      -42.76130000     -32.70500000     -68.60990000
H      -41.15500000     -31.99810000     -70.39450000
