40
Properties=species:S:1:pos:R:3 #=T CELL(abcABC):=T 1.889726e+02=T 90.00000=T Traj:=T positionsangstrom=T Step:=T 0=T Bead:=T pbc="F F F"
C      -44.55610000     -35.68740000     -71.17750000
C      -44.93680000     -35.56870000     -72.51200000
C      -46.24440000     -35.26120000     -72.87250000
C      -47.23870000     -35.08750000     -71.86380000
C      -46.87170000     -35.29510000     -70.53130000
C      -45.55350000     -35.58420000     -70.18300000
H      -43.43060000     -35.76930000     -70.85610000
H      -46.51450000     -35.06290000     -73.92620000
H      -47.66360000     -35.26060000     -69.74820000
H      -45.16830000     -35.72140000     -69.18820000
C      -48.62130000     -34.61760000     -72.30830000
H      -49.33610000     -35.14470000     -71.75020000
H      -48.67030000     -34.81890000     -73.37860000
C      -43.84670000     -35.71280000     -73.55770000
H      -43.17670000     -36.61270000     -73.34380000
H      -44.25930000     -35.67070000     -74.58560000
S      -48.95320000     -32.84970000     -71.89170000
S      -42.57640000     -34.30450000     -73.66630000
C      -47.53710000     -31.95000000     -72.81770000
H      -46.84370000     -32.60290000     -73.22880000
H      -47.99940000     -31.45170000     -73.73300000
C      -43.68160000     -32.75290000     -73.83390000
H      -44.72230000     -33.08110000     -73.85080000
H      -43.52010000     -32.36410000     -74.81470000
C      -43.31000000     -31.68010000     -72.79280000
H      -42.20090000     -31.44560000     -72.95460000
H      -43.92270000     -30.83550000     -73.08950000
C      -46.78400000     -31.00480000     -71.91870000
H      -47.45380000     -30.25030000     -71.49180000
H      -46.03970000     -30.38920000     -72.55520000
C      -46.09410000     -31.58190000     -70.67570000
C      -46.81020000     -31.61530000     -69.51320000
C      -44.72840000     -32.08450000     -70.50300000
H      -47.82590000     -31.30020000     -69.48130000
C      -44.53920000     -32.58760000     -69.19030000
C      -43.54660000     -32.18510000     -71.33860000
C      -42.46240000     -32.70350000     -70.65900000
S      -45.96220000     -32.32700000     -68.21800000
S      -42.90130000     -33.26060000     -68.98010000
H      -41.50940000     -33.15160000     -71.01320000
