40
Properties=species:S:1:pos:R:3 #=T CELL(abcABC):=T 1.889726e+02=T 90.00000=T Traj:=T positionsangstrom=T Step:=T 0=T Bead:=T pbc="F F F"
C      -47.97820000     -35.43600000     -71.62380000
C      -48.39140000     -34.22710000     -72.16320000
C      -47.60860000     -33.76150000     -73.24970000
C      -46.67380000     -34.54220000     -73.85290000
C      -46.27700000     -35.77040000     -73.24280000
C      -46.97030000     -36.25420000     -72.11670000
H      -48.52810000     -35.73110000     -70.71820000
H      -47.98320000     -32.79520000     -73.64990000
H      -45.40440000     -36.33600000     -73.61790000
H      -46.73100000     -37.21190000     -71.63630000
C      -46.01970000     -34.02610000     -75.11370000
H      -46.78450000     -33.74490000     -75.80900000
H      -45.42310000     -34.85070000     -75.64170000
C      -49.53490000     -33.45340000     -71.61710000
H      -50.17960000     -32.93530000     -72.37710000
H      -50.20340000     -34.14520000     -71.03670000
S      -45.06390000     -32.50080000     -74.90180000
S      -48.90940000     -32.02450000     -70.61230000
C      -43.80160000     -32.94110000     -73.60120000
H      -44.01440000     -34.01510000     -73.35870000
H      -42.80200000     -32.95200000     -74.09360000
C      -47.54600000     -32.74650000     -69.61100000
H      -47.71250000     -33.82890000     -69.61050000
H      -47.74030000     -32.38160000     -68.58980000
C      -46.15760000     -32.37890000     -70.21870000
H      -46.14540000     -32.69450000     -71.25700000
H      -46.05110000     -31.26200000     -70.29740000
C      -43.73450000     -31.89370000     -72.45720000
H      -44.79570000     -31.69540000     -72.19750000
H      -43.33790000     -30.94710000     -72.87610000
C      -43.02070000     -32.35360000     -71.21720000
C      -41.70320000     -32.60570000     -71.25870000
C      -43.65220000     -32.90980000     -70.04980000
H      -40.97980000     -32.38220000     -72.03830000
C      -42.71520000     -33.50680000     -69.17330000
C      -44.96870000     -32.87600000     -69.47140000
C      -44.98410000     -33.41040000     -68.22780000
S      -41.09010000     -33.39670000     -69.79070000
S      -43.36310000     -33.93730000     -67.65170000
H      -45.87010000     -33.67830000     -67.61120000
