40
Properties=species:S:1:pos:R:3 #=T CELL(abcABC):=T 1.889726e+02=T 90.00000=T Traj:=T positionsangstrom=T Step:=T 0=T Bead:=T pbc="F F F"
C      -45.05330000     -33.94880000     -68.16970000
C      -45.76660000     -32.82220000     -68.51890000
C      -45.11530000     -31.72080000     -68.97810000
C      -43.72470000     -31.64250000     -69.12680000
C      -42.98120000     -32.76120000     -68.68010000
C      -43.62510000     -33.92020000     -68.31640000
H      -45.50630000     -34.95130000     -67.92670000
H      -45.79980000     -30.87140000     -69.10380000
H      -41.92340000     -32.79510000     -68.87160000
H      -43.03120000     -34.76460000     -67.81490000
C      -43.11120000     -30.42410000     -69.75170000
H      -42.02160000     -30.49820000     -69.73300000
H      -43.38630000     -29.53840000     -69.18700000
C      -47.31030000     -32.72170000     -68.37790000
H      -47.71740000     -33.41260000     -67.60690000
H      -47.51400000     -31.71210000     -67.95210000
S      -43.68890000     -30.07560000     -71.43950000
S      -48.30200000     -33.20150000     -69.85910000
C      -43.40830000     -31.71310000     -72.28890000
H      -42.38790000     -31.68160000     -72.76580000
H      -43.45080000     -32.35770000     -71.51250000
C      -47.75990000     -32.08140000     -71.16690000
H      -46.70750000     -31.74530000     -70.97660000
H      -48.37900000     -31.15070000     -71.11120000
C      -47.84550000     -32.84040000     -72.45670000
H      -48.87850000     -33.16750000     -72.55750000
H      -47.72200000     -32.22010000     -73.37850000
C      -44.50450000     -32.00140000     -73.30980000
H      -44.36440000     -31.47700000     -74.20040000
H      -45.52050000     -31.78600000     -72.97070000
C      -44.50820000     -33.53920000     -73.50580000
C      -43.33890000     -34.19790000     -73.85310000
C      -45.59170000     -34.35780000     -73.04020000
H      -42.41230000     -33.77150000     -74.18460000
C      -45.20790000     -35.64170000     -73.11740000
C      -46.96770000     -34.15900000     -72.57090000
C      -47.55130000     -35.36340000     -72.33830000
S      -43.61530000     -35.94040000     -73.77710000
S      -46.43810000     -36.73480000     -72.59610000
H      -48.55970000     -35.54320000     -72.03990000
