40
Properties=species:S:1:pos:R:3 #=T CELL(abcABC):=T 1.889726e+02=T 90.00000=T Traj:=T positionsangstrom=T Step:=T 0=T Bead:=T pbc="F F F"
C      -44.97320000     -33.08810000     -67.64860000
C      -45.73860000     -32.18660000     -68.36890000
C      -45.08590000     -31.26120000     -69.16550000
C      -43.70300000     -31.16300000     -69.23450000
C      -42.90790000     -32.10840000     -68.43460000
C      -43.57960000     -33.02710000     -67.60310000
H      -45.35730000     -33.99370000     -67.02670000
H      -45.64610000     -30.62100000     -69.81250000
H      -41.83260000     -32.17720000     -68.49180000
H      -43.01990000     -33.66560000     -66.98490000
C      -43.02730000     -30.07170000     -70.04860000
H      -41.93400000     -30.18280000     -69.96260000
H      -43.16140000     -29.10950000     -69.52480000
C      -47.23500000     -32.33230000     -68.35700000
H      -47.56980000     -32.92980000     -67.50280000
H      -47.72760000     -31.35320000     -68.20480000
S      -43.72950000     -30.05040000     -71.70640000
S      -47.95340000     -33.25290000     -69.80420000
C      -43.55800000     -31.89660000     -72.33500000
H      -42.65490000     -31.93890000     -72.86430000
H      -43.55830000     -32.52280000     -71.39850000
C      -47.67680000     -32.33970000     -71.38280000
H      -46.70640000     -31.81610000     -71.39120000
H      -48.34710000     -31.51700000     -71.43050000
C      -47.85640000     -33.29430000     -72.60590000
H      -48.97010000     -33.43880000     -72.69670000
H      -47.52820000     -32.79390000     -73.52540000
C      -44.69790000     -32.22200000     -73.29190000
H      -44.58340000     -31.77350000     -74.29230000
H      -45.70930000     -31.82760000     -73.00060000
C      -44.71120000     -33.76400000     -73.54800000
C      -43.61170000     -34.38590000     -74.11320000
C      -45.72190000     -34.68780000     -73.05150000
H      -42.76650000     -33.85800000     -74.47340000
C      -45.26830000     -35.95000000     -73.08160000
C      -47.08320000     -34.56600000     -72.53530000
C      -47.52000000     -35.85120000     -72.10370000
S      -43.72730000     -36.15440000     -73.87950000
S      -46.40540000     -37.18090000     -72.51720000
H      -48.52740000     -35.87570000     -71.65630000
