40
Properties=species:S:1:pos:R:3 #=T CELL(abcABC):=T 1.889726e+02=T 90.00000=T Traj:=T positionsangstrom=T Step:=T 0=T Bead:=T pbc="F F F"
C      -43.03100000     -30.55270000     -68.60730000
C      -43.92840000     -30.30790000     -69.61860000
C      -45.24340000     -30.83080000     -69.52310000
C      -45.66110000     -31.65420000     -68.46240000
C      -44.72800000     -31.86080000     -67.46380000
C      -43.41330000     -31.34810000     -67.52780000
H      -42.02540000     -30.07000000     -68.59570000
H      -45.89200000     -30.56990000     -70.26140000
H      -44.96560000     -32.46860000     -66.56510000
H      -42.62800000     -31.55130000     -66.71620000
C      -47.09660000     -32.11340000     -68.34620000
H      -47.57270000     -31.27230000     -67.77040000
H      -47.25230000     -32.87410000     -67.73130000
C      -43.61910000     -29.42720000     -70.81910000
H      -44.22830000     -28.51780000     -70.69010000
H      -42.62510000     -29.10300000     -70.75860000
S      -48.04780000     -32.31860000     -69.85620000
S      -44.26140000     -30.16790000     -72.37080000
C      -47.39600000     -33.99180000     -70.43330000
H      -46.32100000     -33.93640000     -70.33250000
H      -47.75540000     -34.75310000     -69.66200000
C      -43.53340000     -31.86290000     -72.57750000
H      -43.02130000     -32.05480000     -71.61160000
H      -42.79900000     -31.68530000     -73.32770000
C      -44.78020000     -32.80140000     -72.76280000
H      -45.60050000     -32.46770000     -72.05830000
H      -45.31370000     -32.55520000     -73.68190000
C      -47.83130000     -34.23150000     -71.86800000
H      -47.56970000     -33.37020000     -72.44410000
H      -48.96900000     -34.51620000     -71.87590000
C      -47.01350000     -35.37670000     -72.36470000
C      -47.50670000     -36.58230000     -72.74450000
C      -45.60480000     -35.28700000     -72.62760000
H      -48.53700000     -36.97040000     -72.47860000
C      -45.12840000     -36.45630000     -73.13890000
C      -44.53360000     -34.28210000     -72.70990000
C      -43.28870000     -34.76130000     -73.12420000
S      -46.29640000     -37.78130000     -73.20980000
S      -43.44670000     -36.49590000     -73.42560000
H      -42.36380000     -34.25610000     -73.39040000
