40
Properties=species:S:1:pos:R:3 #=T CELL(abcABC):=T 1.889726e+02=T 90.00000=T Traj:=T positionsangstrom=T Step:=T 0=T Bead:=T pbc="F F F"
C      -45.11620000     -33.67610000     -68.20880000
C      -45.86620000     -32.51390000     -68.18620000
C      -45.21210000     -31.31300000     -68.57320000
C      -43.88440000     -31.37490000     -69.09010000
C      -43.21560000     -32.57670000     -69.19060000
C      -43.78480000     -33.70990000     -68.65460000
H      -45.59370000     -34.58660000     -68.01770000
H      -45.75240000     -30.36410000     -68.64160000
H      -42.25170000     -32.54230000     -69.58940000
H      -43.17850000     -34.65480000     -68.52630000
C      -43.35290000     -30.18850000     -69.77510000
H      -42.29710000     -30.21370000     -69.63760000
H      -43.69240000     -29.29320000     -69.28890000
C      -47.36650000     -32.56730000     -68.00140000
H      -47.65400000     -33.15210000     -67.10470000
H      -47.86260000     -31.57960000     -67.88070000
S      -43.69120000     -30.05330000     -71.63730000
S      -47.98520000     -33.32930000     -69.58130000
C      -43.43170000     -31.69590000     -72.32900000
H      -42.43180000     -31.77950000     -72.83350000
H      -43.48900000     -32.41280000     -71.54490000
C      -47.33190000     -32.31300000     -70.91130000
H      -46.22930000     -32.27260000     -70.65530000
H      -47.63820000     -31.29610000     -70.77830000
C      -47.68180000     -33.01030000     -72.23900000
H      -48.68960000     -33.24130000     -72.29430000
H      -47.60830000     -32.29950000     -73.07950000
C      -44.48980000     -32.10540000     -73.32770000
H      -44.36110000     -31.51720000     -74.29160000
H      -45.41790000     -31.75100000     -72.94980000
C      -44.50950000     -33.58990000     -73.54650000
C      -43.42720000     -34.27230000     -73.94580000
C      -45.59700000     -34.43290000     -73.07120000
H      -42.46580000     -33.87870000     -74.27310000
C      -45.29370000     -35.82270000     -73.22340000
C      -46.93290000     -34.25890000     -72.56080000
C      -47.48250000     -35.51100000     -72.37500000
S      -43.63670000     -36.02390000     -73.78070000
S      -46.50980000     -36.91870000     -72.82050000
H      -48.50110000     -35.75320000     -72.06120000
