40
Properties=species:S:1:pos:R:3 #=T CELL(abcABC):=T 1.889726e+02=T 90.00000=T Traj:=T positionsangstrom=T Step:=T 0=T Bead:=T pbc="F F F"
C      -48.40660000     -32.05890000     -68.84900000
C      -46.99570000     -32.05880000     -68.61980000
C      -46.22030000     -31.21830000     -69.43570000
C      -46.78960000     -30.37410000     -70.37750000
C      -48.16000000     -30.35410000     -70.60260000
C      -48.95490000     -31.18270000     -69.76550000
H      -49.20360000     -32.59270000     -68.29090000
H      -45.21740000     -30.99950000     -69.14680000
H      -48.66300000     -29.79220000     -71.33110000
H      -49.99560000     -31.11920000     -69.92030000
C      -45.91080000     -29.32180000     -71.13070000
H      -44.92860000     -29.20330000     -70.53490000
H      -46.43220000     -28.37660000     -71.09190000
C      -46.35530000     -32.91660000     -67.56650000
H      -45.26740000     -32.80690000     -67.49890000
H      -46.67520000     -32.59310000     -66.59600000
S      -45.55800000     -29.74710000     -72.92070000
S      -46.64280000     -34.77340000     -67.79520000
C      -45.37520000     -31.64740000     -72.89200000
H      -46.28730000     -31.99460000     -72.37260000
H      -45.32880000     -31.97450000     -73.93260000
C      -45.46660000     -35.14720000     -69.14310000
H      -45.36490000     -36.20200000     -69.11490000
H      -44.47020000     -34.88520000     -68.91710000
C      -45.82630000     -34.71310000     -70.52610000
H      -46.83200000     -34.95630000     -70.61740000
H      -45.80360000     -33.59780000     -70.53450000
C      -44.01890000     -32.15450000     -72.17660000
H      -44.18330000     -32.38700000     -71.10830000
H      -43.17770000     -31.47060000     -72.18540000
C      -43.63350000     -33.47360000     -72.91340000
C      -42.68700000     -33.53770000     -73.86900000
C      -44.07530000     -34.81910000     -72.48850000
H      -42.18950000     -32.64260000     -74.24150000
C      -43.44330000     -35.78860000     -73.37440000
C      -45.01640000     -35.39120000     -71.57260000
C      -45.02440000     -36.78460000     -71.68170000
S      -42.15100000     -35.14530000     -74.39370000
S      -44.00170000     -37.32640000     -72.94830000
H      -45.57470000     -37.49170000     -71.12030000
