40
Properties=species:S:1:pos:R:3 #=T CELL(abcABC):=T 1.889726e+02=T 90.00000=T Traj:=T positionsangstrom=T Step:=T 0=T Bead:=T pbc="F F F"
C      -44.82040000     -32.84100000     -75.09300000
C      -45.44350000     -31.82570000     -74.28640000
C      -46.70890000     -32.06670000     -73.78390000
C      -47.36350000     -33.31830000     -74.08940000
C      -46.76940000     -34.31470000     -74.86890000
C      -45.49060000     -34.02450000     -75.37790000
H      -43.82030000     -32.68780000     -75.53630000
H      -47.09000000     -31.21400000     -73.18050000
H      -47.25940000     -35.22360000     -75.15910000
H      -45.08900000     -34.78650000     -76.08370000
C      -48.75590000     -33.59070000     -73.49810000
H      -49.01680000     -34.58620000     -73.79550000
H      -49.39080000     -32.80790000     -73.97310000
C      -44.76650000     -30.59080000     -74.01260000
H      -44.16040000     -30.21440000     -74.81600000
H      -45.46170000     -29.77530000     -73.73590000
S      -48.75250000     -33.33890000     -71.58490000
S      -43.65490000     -30.76720000     -72.55340000
C      -47.46940000     -34.59130000     -70.88350000
H      -47.79940000     -35.60820000     -71.05720000
H      -46.53940000     -34.52160000     -71.44820000
C      -44.83180000     -30.70730000     -71.16250000
H      -45.66000000     -30.03550000     -71.28990000
H      -44.27860000     -30.18280000     -70.29260000
C      -45.25130000     -32.12290000     -70.76690000
H      -46.16490000     -32.19600000     -70.11340000
H      -45.64930000     -32.68700000     -71.67590000
C      -47.28990000     -34.41590000     -69.31350000
H      -48.03650000     -35.03490000     -68.80920000
H      -47.49070000     -33.34860000     -69.02540000
C      -45.86440000     -34.76480000     -68.93390000
C      -45.65030000     -35.77280000     -68.07200000
C      -44.62640000     -34.14290000     -69.38930000
H      -46.39470000     -36.52030000     -67.87780000
C      -43.51240000     -34.79860000     -68.91200000
C      -44.27290000     -32.97520000     -70.11070000
C      -42.88750000     -32.70710000     -70.08270000
S      -43.97410000     -36.16150000     -67.80650000
S      -42.00050000     -33.98150000     -69.30930000
H      -42.35560000     -31.92890000     -70.61810000
