40
Properties=species:S:1:pos:R:3 #=T CELL(abcABC):=T 1.889726e+02=T 90.00000=T Traj:=T positionsangstrom=T Step:=T 0=T Bead:=T pbc="F F F"
C      -48.08940000     -35.57820000     -71.77070000
C      -48.54930000     -34.32320000     -72.22780000
C      -47.84900000     -33.75660000     -73.30240000
C      -46.87660000     -34.38180000     -74.04370000
C      -46.51830000     -35.67700000     -73.52990000
C      -47.08170000     -36.30400000     -72.47440000
H      -48.59530000     -36.15080000     -71.00040000
H      -48.13110000     -32.79890000     -73.71690000
H      -45.80490000     -36.24710000     -74.04440000
H      -46.78730000     -37.27180000     -72.13010000
C      -46.28350000     -33.88620000     -75.29970000
H      -46.95380000     -33.19900000     -75.91020000
H      -45.72540000     -34.60950000     -75.84990000
C      -49.56580000     -33.44140000     -71.45740000
H      -50.35840000     -33.10600000     -72.10070000
H      -49.96270000     -34.15820000     -70.68150000
S      -44.95050000     -32.64530000     -74.88350000
S      -48.79620000     -32.01450000     -70.68050000
C      -44.24210000     -33.31740000     -73.33600000
H      -45.04520000     -33.71670000     -72.70710000
H      -43.51250000     -34.13280000     -73.49100000
C      -47.35160000     -32.58620000     -69.67720000
H      -47.63720000     -33.46920000     -69.11680000
H      -47.04910000     -31.79280000     -68.94010000
C      -46.08910000     -32.86440000     -70.46700000
H      -46.18010000     -33.71640000     -71.14760000
H      -45.90200000     -31.97770000     -71.03530000
C      -43.48880000     -32.16070000     -72.56140000
H      -44.24120000     -31.35410000     -72.36020000
H      -42.79560000     -31.61200000     -73.21630000
C      -42.85360000     -32.61230000     -71.24690000
C      -41.48770000     -32.65020000     -71.10210000
C      -43.55710000     -32.86870000     -69.99350000
H      -40.78860000     -32.46240000     -71.87190000
C      -42.67430000     -33.17990000     -68.95760000
C      -44.89500000     -33.10220000     -69.58970000
C      -45.04720000     -33.50390000     -68.27140000
S      -40.95210000     -33.10020000     -69.51160000
S      -43.41820000     -33.62900000     -67.47040000
H      -45.97930000     -33.65740000     -67.73490000
