40
Properties=species:S:1:pos:R:3 #=T CELL(abcABC):=T 1.889726e+02=T 90.00000=T Traj:=T positionsangstrom=T Step:=T 0=T Bead:=T pbc="F F F"
C      -45.08770000     -32.75610000     -75.46760000
C      -45.59200000     -31.95430000     -74.39890000
C      -46.77820000     -32.34990000     -73.70490000
C      -47.33710000     -33.61440000     -73.92790000
C      -46.72510000     -34.45820000     -74.83130000
C      -45.65050000     -34.00590000     -75.54630000
H      -44.36060000     -32.47980000     -76.23300000
H      -47.25600000     -31.57950000     -73.10650000
H      -47.07700000     -35.46670000     -74.93440000
H      -45.35580000     -34.54270000     -76.43140000
C      -48.65500000     -33.90420000     -73.35320000
H      -48.79530000     -34.97530000     -73.49330000
H      -49.50640000     -33.44540000     -73.77600000
C      -45.00170000     -30.57600000     -74.09890000
H      -44.37760000     -30.27410000     -74.95190000
H      -45.73720000     -29.84290000     -73.93510000
S      -48.66940000     -33.43930000     -71.47750000
S      -43.78040000     -30.57130000     -72.74600000
C      -47.47210000     -34.75380000     -70.86630000
H      -47.86300000     -35.77130000     -70.85350000
H      -46.58400000     -34.75460000     -71.46600000
C      -44.57280000     -30.50840000     -71.06640000
H      -45.44210000     -29.77340000     -70.99670000
H      -43.81580000     -30.23230000     -70.35110000
C      -45.15750000     -31.84420000     -70.60930000
H      -45.84740000     -31.63010000     -69.74970000
H      -45.77060000     -32.34800000     -71.38960000
C      -47.22290000     -34.39000000     -69.42140000
H      -47.95430000     -34.97110000     -68.78420000
H      -47.49820000     -33.37260000     -69.31570000
C      -45.83290000     -34.73550000     -68.92890000
C      -45.60990000     -35.81260000     -68.10540000
C      -44.62870000     -34.00410000     -69.23870000
H      -46.37920000     -36.34860000     -67.57920000
C      -43.50810000     -34.63850000     -68.70300000
C      -44.20270000     -32.84590000     -70.02820000
C      -42.85600000     -32.71860000     -70.08380000
S      -43.87080000     -36.10350000     -67.86370000
S      -42.01290000     -34.00830000     -69.27990000
H      -42.20240000     -32.01850000     -70.60780000
