40
Properties=species:S:1:pos:R:3 #=T CELL(abcABC):=T 1.889726e+02=T 90.00000=T Traj:=T positionsangstrom=T Step:=T 0=T Bead:=T pbc="F F F"
C      -44.98940000     -32.64560000     -75.23460000
C      -45.72850000     -31.83810000     -74.30750000
C      -46.99700000     -32.33090000     -73.77470000
C      -47.39980000     -33.65010000     -74.01400000
C      -46.62180000     -34.39840000     -74.90590000
C      -45.43090000     -33.93340000     -75.47010000
H      -43.99000000     -32.44170000     -75.70580000
H      -47.57810000     -31.83620000     -72.99540000
H      -46.90910000     -35.41640000     -75.23610000
H      -44.84670000     -34.59570000     -76.11480000
C      -48.60750000     -34.21470000     -73.27500000
H      -48.58330000     -35.29720000     -73.39090000
H      -49.53490000     -33.81760000     -73.84880000
C      -45.16220000     -30.46110000     -74.00880000
H      -44.75500000     -29.82930000     -74.86140000
H      -45.87610000     -29.73910000     -73.50670000
S      -48.86320000     -33.69240000     -71.54570000
S      -43.79180000     -30.62220000     -72.84950000
C      -47.47090000     -34.42610000     -70.64930000
H      -47.50050000     -35.52410000     -70.78150000
H      -46.59440000     -34.05540000     -71.21150000
C      -44.78630000     -30.63720000     -71.23720000
H      -45.58430000     -29.96500000     -71.46810000
H      -44.17830000     -30.10160000     -70.54060000
C      -45.12920000     -31.97210000     -70.63790000
H      -45.84840000     -31.69640000     -69.85330000
H      -45.75060000     -32.49110000     -71.35110000
C      -47.19370000     -34.06040000     -69.23550000
H      -47.97010000     -34.51520000     -68.60760000
H      -47.18370000     -32.95760000     -69.10530000
C      -45.75000000     -34.59830000     -68.81070000
C      -45.52370000     -35.73640000     -68.09650000
C      -44.51560000     -34.04370000     -69.34510000
H      -46.31460000     -36.38450000     -67.62880000
C      -43.41080000     -34.76460000     -68.87870000
C      -44.13810000     -32.84920000     -70.04820000
C      -42.80470000     -32.64000000     -70.07250000
S      -43.86630000     -36.12100000     -67.85450000
S      -41.91740000     -33.97740000     -69.29460000
H      -42.22460000     -31.90450000     -70.62070000
