40
Properties=species:S:1:pos:R:3 #=T CELL(abcABC):=T 1.889726e+02=T 90.00000=T Traj:=T positionsangstrom=T Step:=T 0=T Bead:=T pbc="F F F"
C      -44.90390000     -33.16480000     -74.74530000
C      -45.48190000     -32.01620000     -74.17250000
C      -46.84110000     -32.08710000     -73.83980000
C      -47.62870000     -33.26660000     -73.99600000
C      -47.02090000     -34.40150000     -74.54830000
C      -45.66600000     -34.31950000     -74.91270000
H      -43.84970000     -33.18330000     -75.05630000
H      -47.25620000     -31.20500000     -73.39190000
H      -47.52000000     -35.35000000     -74.56950000
H      -45.18760000     -35.18630000     -75.35990000
C      -49.02020000     -33.52110000     -73.37550000
H      -49.50060000     -34.45230000     -73.59110000
H      -49.72660000     -32.74710000     -73.79940000
C      -44.65940000     -30.77240000     -73.91100000
H      -44.31000000     -30.26070000     -74.79840000
H      -45.20660000     -30.05570000     -73.29720000
S      -49.00190000     -33.19900000     -71.61230000
S      -43.27350000     -31.16630000     -72.66990000
C      -47.53830000     -34.20910000     -70.98440000
H      -47.68750000     -35.25540000     -71.14190000
H      -46.64760000     -33.96450000     -71.57380000
C      -43.96280000     -30.41830000     -71.08430000
H      -44.54140000     -29.46460000     -71.27340000
H      -43.12780000     -30.14830000     -70.45120000
C      -44.83060000     -31.40430000     -70.28250000
H      -45.13260000     -30.91610000     -69.32760000
H      -45.73430000     -31.67400000     -70.80560000
C      -47.24430000     -33.87620000     -69.51690000
H      -48.14270000     -34.06900000     -68.90230000
H      -47.11570000     -32.82800000     -69.34840000
C      -45.99020000     -34.58230000     -69.08500000
C      -45.83690000     -35.82220000     -68.55860000
C      -44.68430000     -33.97930000     -69.48190000
H      -46.51400000     -36.39380000     -67.94760000
C      -43.63820000     -34.89060000     -69.10560000
C      -44.10930000     -32.67780000     -69.84370000
C      -42.68680000     -32.69850000     -69.77280000
S      -44.17530000     -36.39180000     -68.42460000
S      -42.02130000     -34.17650000     -69.20170000
H      -41.96560000     -31.86880000     -69.96220000
