40
Properties=species:S:1:pos:R:3 #=T CELL(abcABC):=T 1.889726e+02=T 90.00000=T Traj:=T positionsangstrom=T Step:=T 0=T Bead:=T pbc="F F F"
C      -44.85740000     -33.10580000     -74.70570000
C      -45.53870000     -31.95480000     -74.14210000
C      -46.87190000     -32.12650000     -73.78130000
C      -47.56890000     -33.30990000     -73.91320000
C      -46.93860000     -34.39170000     -74.53650000
C      -45.58270000     -34.27820000     -74.94370000
H      -43.79910000     -33.14340000     -74.90210000
H      -47.35800000     -31.29110000     -73.27140000
H      -47.47510000     -35.27920000     -74.75770000
H      -45.09880000     -35.08530000     -75.46610000
C      -49.02340000     -33.33230000     -73.45170000
H      -49.67080000     -34.16640000     -73.75810000
H      -49.59020000     -32.40420000     -73.86030000
C      -44.82950000     -30.61260000     -73.88420000
H      -44.28070000     -30.36790000     -74.78180000
H      -45.44860000     -29.76380000     -73.48140000
S      -49.06570000     -33.13100000     -71.60340000
S      -43.35770000     -30.93620000     -72.70180000
C      -47.63410000     -34.20170000     -71.16270000
H      -47.86710000     -35.25740000     -71.32670000
H      -46.76030000     -33.98260000     -71.80720000
C      -44.17660000     -30.47300000     -71.03390000
H      -44.89610000     -29.77650000     -71.38770000
H      -43.41760000     -30.05520000     -70.32440000
C      -44.84090000     -31.72520000     -70.37940000
H      -45.44920000     -31.38970000     -69.49180000
H      -45.62070000     -32.14950000     -71.00360000
C      -47.19770000     -33.99540000     -69.71730000
H      -47.91780000     -34.51910000     -69.09030000
H      -47.25400000     -32.90870000     -69.45690000
C      -45.87480000     -34.60780000     -69.24730000
C      -45.87360000     -35.81690000     -68.61740000
C      -44.54940000     -34.10160000     -69.49110000
H      -46.62270000     -36.55050000     -68.47770000
C      -43.57180000     -34.90490000     -68.85760000
C      -43.97250000     -32.85410000     -69.92440000
C      -42.57790000     -32.79530000     -69.84420000
S      -44.19060000     -36.31720000     -68.15150000
S      -41.91670000     -34.33850000     -69.22800000
H      -41.91320000     -31.91640000     -70.10600000
