40
Properties=species:S:1:pos:R:3 #=T CELL(abcABC):=T 1.889726e+02=T 90.00000=T Traj:=T positionsangstrom=T Step:=T 0=T Bead:=T pbc="F F F"
C      -44.58380000     -33.61460000     -74.70900000
C      -45.05830000     -32.33780000     -74.24880000
C      -46.38880000     -32.09070000     -73.88160000
C      -47.32250000     -33.15290000     -73.98930000
C      -46.85870000     -34.38480000     -74.38120000
C      -45.50320000     -34.64140000     -74.70240000
H      -43.53250000     -33.68700000     -74.96230000
H      -46.78330000     -31.07170000     -73.68710000
H      -47.51510000     -35.28800000     -74.46640000
H      -45.24370000     -35.66910000     -74.89740000
C      -48.75420000     -32.93780000     -73.62040000
H      -49.45860000     -33.54640000     -74.21350000
H      -49.06440000     -31.91180000     -73.72140000
C      -44.03080000     -31.10730000     -74.31930000
H      -43.30570000     -31.15780000     -75.12540000
H      -44.55590000     -30.15120000     -74.47970000
S      -49.16270000     -33.27050000     -71.78200000
S      -42.95110000     -30.92750000     -72.73800000
C      -47.78020000     -34.39660000     -71.28930000
H      -48.07060000     -35.46470000     -71.31790000
H      -47.05780000     -34.36830000     -72.05500000
C      -44.25320000     -30.69750000     -71.45460000
H      -44.93500000     -30.07440000     -71.93660000
H      -43.74650000     -30.15420000     -70.64870000
C      -44.92410000     -31.88740000     -70.91500000
H      -45.76740000     -31.46800000     -70.39250000
H      -45.38530000     -32.51930000     -71.73740000
C      -47.36170000     -33.96250000     -69.86720000
H      -48.15660000     -34.40120000     -69.24960000
H      -47.33630000     -32.91040000     -69.60750000
C      -46.12890000     -34.61400000     -69.35630000
C      -46.09750000     -35.77360000     -68.60800000
C      -44.72330000     -34.04990000     -69.45690000
H      -46.89570000     -36.44240000     -68.50620000
C      -43.78960000     -34.70340000     -68.59970000
C      -44.15560000     -32.86160000     -70.10120000
C      -42.86640000     -32.62580000     -69.71080000
S      -44.50440000     -36.12260000     -67.85850000
S      -42.29550000     -33.86680000     -68.58510000
H      -42.16110000     -31.84030000     -69.89090000
