40
Properties=species:S:1:pos:R:3 #=T CELL(abcABC):=T 1.889726e+02=T 90.00000=T Traj:=T positionsangstrom=T Step:=T 0=T Bead:=T pbc="F F F"
C      -44.89910000     -33.28660000     -75.09780000
C      -45.30900000     -32.24140000     -74.22420000
C      -46.62670000     -32.38100000     -73.65100000
C      -47.47820000     -33.53440000     -73.84000000
C      -46.90090000     -34.63710000     -74.51480000
C      -45.66820000     -34.43060000     -75.17080000
H      -44.05120000     -33.06420000     -75.72980000
H      -46.92260000     -31.60110000     -72.99970000
H      -47.41770000     -35.61520000     -74.51340000
H      -45.36750000     -35.20880000     -75.87380000
C      -48.88870000     -33.52750000     -73.29750000
H      -49.27820000     -34.54280000     -73.52800000
H      -49.63020000     -32.87870000     -73.71620000
C      -44.50450000     -30.96450000     -74.02930000
H      -43.75770000     -30.85520000     -74.85070000
H      -45.01460000     -30.02240000     -74.02210000
S      -49.08170000     -33.23360000     -71.51350000
S      -43.30190000     -31.13030000     -72.53410000
C      -47.61330000     -34.11260000     -70.90110000
H      -47.75910000     -35.17890000     -70.91890000
H      -46.76330000     -33.87430000     -71.56400000
C      -44.21660000     -30.41120000     -71.14360000
H      -44.95600000     -29.70120000     -71.48730000
H      -43.43670000     -29.82480000     -70.56700000
C      -44.85940000     -31.41900000     -70.22460000
H      -45.26780000     -30.80870000     -69.37590000
H      -45.78700000     -31.79420000     -70.67960000
C      -47.25290000     -33.65700000     -69.49770000
H      -48.08040000     -33.87070000     -68.83360000
H      -47.00710000     -32.58050000     -69.44760000
C      -45.98130000     -34.38920000     -69.13880000
C      -45.95560000     -35.63000000     -68.66020000
C      -44.63360000     -33.85740000     -69.31200000
H      -46.78640000     -36.35580000     -68.69790000
C      -43.63420000     -34.76340000     -69.03700000
C      -44.07710000     -32.58430000     -69.68300000
C      -42.66620000     -32.54420000     -69.64800000
S      -44.28810000     -36.33180000     -68.58000000
S      -42.01120000     -34.12250000     -69.26590000
H      -42.06760000     -31.77300000     -70.00570000
