40
Properties=species:S:1:pos:R:3 #=T CELL(abcABC):=T 1.889726e+02=T 90.00000=T Traj:=T positionsangstrom=T Step:=T 0=T Bead:=T pbc="F F F"
C      -44.77000000     -33.37390000     -74.92940000
C      -45.29930000     -32.31030000     -74.20420000
C      -46.60210000     -32.42650000     -73.61690000
C      -47.45760000     -33.50220000     -73.98390000
C      -46.93200000     -34.53590000     -74.82060000
C      -45.63340000     -34.44080000     -75.24980000
H      -43.76050000     -33.35570000     -75.17680000
H      -47.01820000     -31.56300000     -73.11750000
H      -47.58850000     -35.37580000     -75.07660000
H      -45.22250000     -35.31610000     -75.77130000
C      -48.87570000     -33.66640000     -73.45590000
H      -49.27050000     -34.65540000     -73.52780000
H      -49.66670000     -32.97480000     -73.99380000
C      -44.53680000     -31.04230000     -73.95860000
H      -43.94140000     -30.77210000     -74.82350000
H      -45.24740000     -30.20980000     -73.74430000
S      -49.03210000     -33.08010000     -71.61320000
S      -43.33500000     -31.23230000     -72.54150000
C      -47.73430000     -34.13990000     -70.83770000
H      -47.99860000     -35.18800000     -70.86140000
H      -46.84270000     -34.13560000     -71.51730000
C      -44.16930000     -30.30230000     -71.10700000
H      -44.92060000     -29.57800000     -71.50860000
H      -43.50460000     -29.66720000     -70.54200000
C      -44.85280000     -31.37120000     -70.22580000
H      -45.22780000     -30.88100000     -69.31290000
H      -45.67860000     -31.69010000     -70.76300000
C      -47.33120000     -33.80300000     -69.42110000
H      -48.15240000     -34.12350000     -68.69910000
H      -47.27670000     -32.72330000     -69.27490000
C      -46.01860000     -34.44550000     -69.09730000
C      -45.85010000     -35.66370000     -68.59860000
C      -44.70010000     -33.85590000     -69.35570000
H      -46.76540000     -36.31440000     -68.35060000
C      -43.66510000     -34.75840000     -69.05270000
C      -44.10160000     -32.58260000     -69.81910000
C      -42.73050000     -32.54760000     -69.67950000
S      -44.19960000     -36.26380000     -68.47510000
S      -42.05250000     -34.07060000     -69.15630000
H      -42.15920000     -31.75290000     -70.08110000
