40
Properties=species:S:1:pos:R:3 #=T CELL(abcABC):=T 1.889726e+02=T 90.00000=T Traj:=T positionsangstrom=T Step:=T 0=T Bead:=T pbc="F F F"
C      -44.33400000     -33.64980000     -74.57520000
C      -44.77860000     -32.40330000     -74.20700000
C      -46.20210000     -32.25510000     -74.01730000
C      -47.08400000     -33.36280000     -74.10220000
C      -46.54100000     -34.68540000     -74.47680000
C      -45.19920000     -34.76290000     -74.70440000
H      -43.28150000     -33.80960000     -74.59730000
H      -46.56250000     -31.26720000     -73.79610000
H      -47.16440000     -35.56990000     -74.53610000
H      -44.70990000     -35.69060000     -74.88410000
C      -48.61720000     -33.24020000     -73.83700000
H      -49.03160000     -34.05080000     -74.42280000
H      -49.01300000     -32.25510000     -74.24010000
C      -43.95470000     -31.20190000     -74.15920000
H      -43.22640000     -31.23260000     -74.96610000
H      -44.68670000     -30.34210000     -74.17090000
S      -49.15030000     -33.37470000     -72.07440000
S      -43.00980000     -31.23100000     -72.55440000
C      -47.59360000     -34.10990000     -71.27250000
H      -47.71070000     -35.15400000     -71.41820000
H      -46.72750000     -33.61090000     -71.74720000
C      -44.26800000     -30.48680000     -71.40270000
H      -44.91700000     -29.77070000     -71.95270000
H      -43.66810000     -29.92570000     -70.76920000
C      -45.11480000     -31.54510000     -70.58280000
H      -45.61310000     -30.98550000     -69.74430000
H      -45.80580000     -32.00760000     -71.21510000
C      -47.54470000     -33.78050000     -69.76120000
H      -48.38460000     -34.23720000     -69.25640000
H      -47.70440000     -32.69650000     -69.55570000
C      -46.25790000     -34.24590000     -69.12670000
C      -46.25910000     -35.48740000     -68.51320000
C      -44.93070000     -33.73750000     -69.13980000
H      -47.25150000     -35.98290000     -68.22590000
C      -43.96690000     -34.54130000     -68.53670000
C      -44.28320000     -32.64840000     -69.87330000
C      -42.91450000     -32.66600000     -69.79020000
S      -44.70620000     -36.01850000     -67.92890000
S      -42.35830000     -34.00140000     -68.86590000
H      -42.40580000     -31.86300000     -70.26310000
