40
Properties=species:S:1:pos:R:3 #=T CELL(abcABC):=T 1.889726e+02=T 90.00000=T Traj:=T positionsangstrom=T Step:=T 0=T Bead:=T pbc="F F F"
C      -44.80860000     -33.24630000     -74.76970000
C      -45.34880000     -32.12710000     -74.13440000
C      -46.68110000     -32.25400000     -73.67690000
C      -47.50580000     -33.42710000     -73.87560000
C      -46.97230000     -34.46220000     -74.65330000
C      -45.63360000     -34.32330000     -75.07850000
H      -43.73670000     -33.27270000     -75.05590000
H      -47.08320000     -31.38010000     -73.14610000
H      -47.57870000     -35.28160000     -75.06510000
H      -45.20970000     -35.13850000     -75.63460000
C      -48.93320000     -33.50760000     -73.38460000
H      -49.25950000     -34.54500000     -73.70330000
H      -49.50340000     -32.76400000     -73.84550000
C      -44.52280000     -30.88130000     -73.89900000
H      -44.02460000     -30.62570000     -74.86000000
H      -45.13160000     -30.01080000     -73.67260000
S      -49.03190000     -33.29940000     -71.52290000
S      -43.33610000     -31.20720000     -72.63700000
C      -47.60950000     -34.13090000     -70.79830000
H      -47.75700000     -35.23520000     -70.76090000
H      -46.75040000     -33.89840000     -71.47100000
C      -44.10920000     -30.54840000     -71.14810000
H      -44.85510000     -29.79500000     -71.49710000
H      -43.35990000     -29.97000000     -70.64520000
C      -44.94200000     -31.48160000     -70.31550000
H      -45.51200000     -30.91840000     -69.59910000
H      -45.69000000     -31.89110000     -71.02760000
C      -47.34350000     -33.71840000     -69.36480000
H      -48.08790000     -34.12960000     -68.69670000
H      -47.24510000     -32.60670000     -69.27630000
C      -45.99530000     -34.38630000     -69.04890000
C      -45.96310000     -35.71200000     -68.81940000
C      -44.62160000     -33.78410000     -69.15640000
H      -46.73510000     -36.41800000     -68.53760000
C      -43.62130000     -34.73580000     -68.91740000
C      -44.05860000     -32.52840000     -69.70680000
C      -42.64450000     -32.59880000     -69.86870000
S      -44.27250000     -36.35760000     -68.63580000
S      -41.98260000     -34.14260000     -69.27120000
H      -41.95620000     -31.84600000     -70.21940000
