40
Properties=species:S:1:pos:R:3 #=T CELL(abcABC):=T 1.889726e+02=T 90.00000=T Traj:=T positionsangstrom=T Step:=T 0=T Bead:=T pbc="F F F"
C      -45.07680000     -36.33280000     -72.23390000
C      -46.15720000     -35.74820000     -72.85750000
C      -47.21760000     -35.17060000     -72.10450000
C      -47.30780000     -35.32790000     -70.75920000
C      -46.19740000     -35.97130000     -70.14700000
C      -45.12170000     -36.51210000     -70.84850000
H      -44.25910000     -36.47240000     -72.88190000
H      -48.03810000     -34.73130000     -72.65220000
H      -45.95200000     -36.01840000     -68.99120000
H      -44.29840000     -37.10010000     -70.31360000
C      -48.52600000     -34.71040000     -70.05450000
H      -48.87940000     -35.10100000     -69.10430000
H      -49.41450000     -34.83750000     -70.73940000
C      -46.07250000     -35.51880000     -74.31890000
H      -45.93790000     -36.43000000     -74.95870000
H      -46.99300000     -35.08030000     -74.68330000
S      -48.44070000     -32.93680000     -69.59940000
S      -44.77560000     -34.12970000     -74.75830000
C      -47.76080000     -31.98440000     -71.05970000
H      -47.40130000     -32.66820000     -71.89280000
H      -48.65790000     -31.49740000     -71.47140000
C      -45.60330000     -32.60550000     -74.00940000
H      -46.28850000     -33.04980000     -73.27210000
H      -46.27080000     -32.14460000     -74.72710000
C      -44.59910000     -31.48610000     -73.43960000
H      -44.03160000     -31.10720000     -74.27420000
H      -45.23730000     -30.71300000     -73.03810000
C      -46.72250000     -30.94740000     -70.65550000
H      -47.16110000     -30.26610000     -69.85090000
H      -46.49560000     -30.29750000     -71.54590000
C      -45.43040000     -31.52390000     -70.12240000
C      -45.24590000     -31.68830000     -68.76890000
C      -44.28840000     -32.00790000     -70.90500000
H      -45.93000000     -31.36910000     -67.93950000
C      -43.27250000     -32.44870000     -70.03530000
C      -43.76190000     -31.96660000     -72.27610000
C      -42.40410000     -32.22280000     -72.31280000
S      -43.71270000     -32.56460000     -68.34090000
S      -41.78700000     -32.65490000     -70.79190000
H      -41.80920000     -32.08660000     -73.26890000
