40
Properties=species:S:1:pos:R:3 #=T CELL(abcABC):=T 1.889726e+02=T 90.00000=T Traj:=T positionsangstrom=T Step:=T 0=T Bead:=T pbc="F F F"
C      -44.22840000     -33.71250000     -74.61400000
C      -44.95220000     -32.54550000     -74.22920000
C      -46.38520000     -32.66510000     -74.11830000
C      -46.99620000     -33.91420000     -74.28810000
C      -46.29920000     -35.06650000     -74.62440000
C      -44.91550000     -34.91920000     -74.84450000
H      -43.06660000     -33.81090000     -74.73730000
H      -46.91350000     -31.79560000     -73.78470000
H      -46.80650000     -36.02660000     -74.63850000
H      -44.30950000     -35.80610000     -75.03160000
C      -48.46360000     -33.90840000     -73.94700000
H      -48.92520000     -34.96740000     -73.96420000
H      -48.98290000     -33.38270000     -74.72260000
C      -44.26590000     -31.20560000     -74.13950000
H      -43.73760000     -31.07510000     -75.12850000
H      -45.01310000     -30.38050000     -73.91310000
S      -48.88330000     -33.14050000     -72.26490000
S      -43.09590000     -31.22340000     -72.66500000
C      -47.66970000     -34.16330000     -71.20840000
H      -48.12370000     -35.23790000     -71.21680000
H      -46.76130000     -34.18710000     -71.75940000
C      -43.98680000     -30.42940000     -71.31640000
H      -44.51440000     -29.61270000     -71.79590000
H      -43.36760000     -29.89140000     -70.61640000
C      -44.94690000     -31.30010000     -70.51790000
H      -45.45310000     -30.66750000     -69.79180000
H      -45.74100000     -31.81990000     -71.10660000
C      -47.54390000     -33.53150000     -69.88290000
H      -48.46270000     -33.66060000     -69.23510000
H      -47.37500000     -32.48230000     -70.04580000
C      -46.31350000     -34.09260000     -69.09180000
C      -46.45270000     -35.25360000     -68.34740000
C      -44.97990000     -33.57510000     -69.08680000
H      -47.32580000     -35.96400000     -68.35050000
C      -44.10680000     -34.48970000     -68.56640000
C      -44.24430000     -32.43330000     -69.74790000
C      -42.92220000     -32.54100000     -69.57750000
S      -44.87250000     -35.88870000     -67.84120000
S      -42.46530000     -33.95430000     -68.62990000
H      -42.08570000     -31.84660000     -69.79880000
