40
Properties=species:S:1:pos:R:3 #=T CELL(abcABC):=T 1.889726e+02=T 90.00000=T Traj:=T positionsangstrom=T Step:=T 0=T Bead:=T pbc="F F F"
C      -43.95830000     -33.68020000     -74.62350000
C      -44.63000000     -32.43890000     -74.43490000
C      -46.03500000     -32.39820000     -74.26450000
C      -46.74140000     -33.61030000     -74.35690000
C      -46.09400000     -34.85160000     -74.40490000
C      -44.66390000     -34.87590000     -74.59840000
H      -42.85440000     -33.59620000     -74.83030000
H      -46.54860000     -31.47430000     -74.01660000
H      -46.63430000     -35.80670000     -74.35450000
H      -44.21480000     -35.79960000     -74.66800000
C      -48.31970000     -33.67310000     -74.22320000
H      -48.60320000     -34.63360000     -74.62540000
H      -48.92900000     -33.06210000     -74.75040000
C      -43.84120000     -31.20450000     -74.35930000
H      -43.01690000     -31.07890000     -75.05500000
H      -44.48770000     -30.36260000     -74.50940000
S      -48.91130000     -33.59280000     -72.45800000
S      -43.02710000     -30.99330000     -72.65520000
C      -47.76200000     -34.52520000     -71.39430000
H      -47.92010000     -35.69460000     -71.41710000
H      -46.68860000     -34.49630000     -71.76410000
C      -44.36920000     -30.59060000     -71.46040000
H      -45.08830000     -29.97770000     -72.08040000
H      -43.91250000     -29.99820000     -70.65840000
C      -45.17300000     -31.79450000     -70.89260000
H      -46.09250000     -31.39800000     -70.46220000
H      -45.48020000     -32.33340000     -71.78870000
C      -47.73760000     -33.83530000     -69.95910000
H      -48.56460000     -34.13670000     -69.30810000
H      -47.87080000     -32.74970000     -70.09970000
C      -46.47210000     -34.23660000     -69.09110000
C      -46.57580000     -35.18880000     -68.07370000
C      -45.11890000     -33.74540000     -69.20610000
H      -47.56440000     -35.68030000     -67.80440000
C      -44.21340000     -34.31310000     -68.36610000
C      -44.44810000     -32.70450000     -69.98550000
C      -43.08840000     -32.74550000     -69.73750000
S      -44.95740000     -35.44220000     -67.24570000
S      -42.58410000     -33.87910000     -68.48280000
H      -42.44400000     -31.93600000     -69.94400000
