40
Properties=species:S:1:pos:R:3 #=T CELL(abcABC):=T 1.889726e+02=T 90.00000=T Traj:=T positionsangstrom=T Step:=T 0=T Bead:=T pbc="F F F"
C      -44.26930000     -33.64890000     -74.64170000
C      -44.93350000     -32.38250000     -74.27470000
C      -46.31230000     -32.40230000     -74.05420000
C      -47.03730000     -33.64340000     -74.21230000
C      -46.37110000     -34.83490000     -74.43910000
C      -45.00280000     -34.80610000     -74.72490000
H      -43.16730000     -33.64040000     -74.96000000
H      -46.91620000     -31.51280000     -73.84310000
H      -46.93310000     -35.74960000     -74.54620000
H      -44.49550000     -35.66450000     -75.11480000
C      -48.51230000     -33.65520000     -73.97560000
H      -48.99450000     -34.52560000     -74.29320000
H      -49.02310000     -32.74940000     -74.40250000
C      -44.07240000     -31.13320000     -74.03640000
H      -43.31470000     -30.97910000     -74.81090000
H      -44.56080000     -30.19500000     -74.08250000
S      -49.01210000     -33.34730000     -72.15970000
S      -43.02820000     -31.37120000     -72.53160000
C      -47.63710000     -34.01230000     -71.18880000
H      -47.69220000     -35.10880000     -71.26500000
H      -46.68790000     -33.94460000     -71.70110000
C      -43.99820000     -30.52190000     -71.26510000
H      -44.48280000     -29.65450000     -71.75470000
H      -43.29090000     -30.15370000     -70.45940000
C      -45.01640000     -31.45360000     -70.54560000
H      -45.64610000     -30.84150000     -69.93010000
H      -45.71480000     -31.82370000     -71.34750000
C      -47.54830000     -33.53490000     -69.76560000
H      -48.43000000     -33.78960000     -69.18190000
H      -47.51190000     -32.45770000     -69.80930000
C      -46.30690000     -34.13420000     -69.15830000
C      -46.39340000     -35.32640000     -68.46450000
C      -44.97370000     -33.70640000     -69.34620000
H      -47.37690000     -35.90100000     -68.23560000
C      -44.08590000     -34.62500000     -68.85580000
C      -44.26990000     -32.49800000     -69.81120000
C      -42.92960000     -32.51320000     -69.55370000
S      -44.84630000     -35.89370000     -67.87400000
S      -42.44540000     -34.00080000     -68.76840000
H      -42.27260000     -31.89580000     -70.07790000
