40
Properties=species:S:1:pos:R:3 #=T CELL(abcABC):=T 1.889726e+02=T 90.00000=T Traj:=T positionsangstrom=T Step:=T 0=T Bead:=T pbc="F F F"
C      -43.95850000     -33.68490000     -74.62730000
C      -44.71550000     -32.49070000     -74.45030000
C      -46.14640000     -32.55870000     -74.29020000
C      -46.77350000     -33.80020000     -74.29980000
C      -46.01280000     -35.02320000     -74.48630000
C      -44.66130000     -34.90860000     -74.75630000
H      -42.89830000     -33.50130000     -74.63380000
H      -46.75150000     -31.70240000     -74.30260000
H      -46.54860000     -36.01090000     -74.57170000
H      -44.07210000     -35.75120000     -74.96040000
C      -48.28270000     -33.84570000     -74.01290000
H      -48.73820000     -34.83050000     -74.32290000
H      -48.77470000     -33.03080000     -74.60980000
C      -43.97390000     -31.17590000     -74.36200000
H      -43.13320000     -31.10820000     -75.13460000
H      -44.73780000     -30.42010000     -74.55560000
S      -48.85010000     -33.38010000     -72.22450000
S      -42.98130000     -30.99450000     -72.80600000
C      -47.63730000     -34.34050000     -71.29620000
H      -48.00360000     -35.32050000     -71.24650000
H      -46.73690000     -34.22220000     -71.72530000
C      -44.26390000     -30.56630000     -71.54490000
H      -44.96370000     -29.81080000     -71.90490000
H      -43.64100000     -30.00500000     -70.80210000
C      -45.18600000     -31.69670000     -70.93160000
H      -45.95830000     -31.19640000     -70.39020000
H      -45.64410000     -32.25940000     -71.80890000
C      -47.62210000     -33.67730000     -69.88850000
H      -48.54880000     -34.06080000     -69.44140000
H      -47.58590000     -32.54110000     -69.92160000
C      -46.48800000     -34.22320000     -69.05910000
C      -46.50330000     -35.33320000     -68.19450000
C      -45.16400000     -33.63480000     -69.06050000
H      -47.41880000     -35.88510000     -67.96750000
C      -44.29270000     -34.23400000     -68.19000000
C      -44.51800000     -32.63260000     -69.87160000
C      -43.16070000     -32.63920000     -69.67360000
S      -45.00810000     -35.70680000     -67.46560000
S      -42.60960000     -33.82020000     -68.49920000
H      -42.32780000     -32.10570000     -70.15380000
