40
Properties=species:S:1:pos:R:3 #=T CELL(abcABC):=T 1.889726e+02=T 90.00000=T Traj:=T positionsangstrom=T Step:=T 0=T Bead:=T pbc="F F F"
C      -43.76920000     -34.45560000     -73.91200000
C      -44.20920000     -33.11150000     -74.02710000
C      -45.60450000     -33.05510000     -74.28610000
C      -46.48920000     -34.11480000     -74.33780000
C      -45.94970000     -35.40260000     -74.31270000
C      -44.57830000     -35.54600000     -74.16240000
H      -42.74270000     -34.47850000     -73.81970000
H      -46.01430000     -32.00770000     -74.47950000
H      -46.66120000     -36.23600000     -74.40710000
H      -44.15670000     -36.49240000     -74.28580000
C      -47.99040000     -33.99470000     -74.49570000
H      -48.44980000     -34.52340000     -75.34070000
H      -48.15530000     -32.94130000     -74.69700000
C      -43.23830000     -31.93280000     -74.09700000
H      -42.49770000     -32.08620000     -74.90900000
H      -43.72160000     -30.99190000     -74.35960000
S      -49.05160000     -34.51690000     -73.01990000
S      -42.42380000     -31.66980000     -72.40030000
C      -47.98140000     -34.71420000     -71.58010000
H      -48.76130000     -34.93100000     -70.75650000
H      -47.37010000     -35.66490000     -71.64490000
C      -43.53450000     -30.39900000     -71.58040000
H      -43.76920000     -29.72320000     -72.35990000
H      -42.90130000     -29.89150000     -70.86270000
C      -44.77860000     -31.07830000     -71.01980000
H      -45.50490000     -30.29890000     -70.98720000
H      -45.00230000     -31.79730000     -71.78250000
C      -47.14750000     -33.51980000     -71.13310000
H      -47.76840000     -32.60880000     -70.88170000
H      -46.46980000     -33.15210000     -71.92120000
C      -46.37490000     -33.89530000     -69.87550000
C      -46.54880000     -35.06970000     -69.19950000
C      -45.31190000     -33.08390000     -69.37020000
H      -47.26630000     -35.84860000     -69.51970000
C      -44.93060000     -33.52640000     -68.09590000
C      -44.60890000     -31.86190000     -69.77410000
C      -43.73980000     -31.50280000     -68.73070000
S      -45.49450000     -35.16620000     -67.67260000
S      -43.63740000     -32.60640000     -67.42740000
H      -43.10410000     -30.65070000     -68.70250000
