40
Properties=species:S:1:pos:R:3 #=T CELL(abcABC):=T 1.889726e+02=T 90.00000=T Traj:=T positionsangstrom=T Step:=T 0=T Bead:=T pbc="F F F"
C      -45.20790000     -36.07650000     -72.13450000
C      -46.16230000     -35.39940000     -72.91480000
C      -47.26620000     -34.90410000     -72.19610000
C      -47.44160000     -35.03170000     -70.80040000
C      -46.51220000     -35.82820000     -70.12310000
C      -45.40870000     -36.43290000     -70.77600000
H      -44.24910000     -36.32530000     -72.69240000
H      -47.87560000     -34.29510000     -72.85490000
H      -46.61960000     -35.88990000     -69.01650000
H      -44.71100000     -37.09800000     -70.25360000
C      -48.65740000     -34.35730000     -70.16420000
H      -49.12400000     -34.99080000     -69.35890000
H      -49.49260000     -34.32510000     -70.86460000
C      -45.98870000     -35.04000000     -74.36860000
H      -45.36650000     -35.77570000     -74.88700000
H      -46.97370000     -34.91940000     -74.79250000
S      -48.38720000     -32.69130000     -69.34240000
S      -45.17700000     -33.45610000     -74.89220000
C      -47.46510000     -31.61420000     -70.56860000
H      -47.22310000     -32.26150000     -71.39130000
H      -48.17010000     -30.83160000     -70.96960000
C      -45.92000000     -32.05550000     -73.80770000
H      -46.57420000     -32.46750000     -73.03430000
H      -46.62300000     -31.38420000     -74.34510000
C      -44.76160000     -31.27100000     -73.22220000
H      -44.08390000     -31.11600000     -74.10790000
H      -45.11130000     -30.28340000     -72.89760000
C      -46.21050000     -30.87030000     -70.19390000
H      -46.43690000     -30.24400000     -69.33810000
H      -45.96650000     -30.33850000     -71.05270000
C      -45.08430000     -31.75450000     -69.79350000
C      -44.81470000     -32.26160000     -68.52350000
C      -44.10700000     -32.14200000     -70.73860000
H      -45.35670000     -32.13240000     -67.57410000
C      -43.11680000     -33.03110000     -70.24700000
C      -43.92020000     -31.97130000     -72.17000000
C      -42.74170000     -32.58520000     -72.62810000
S      -43.28280000     -33.19820000     -68.48820000
S      -41.88430000     -33.64450000     -71.42480000
H      -42.36310000     -32.33330000     -73.59260000
