40
Properties=species:S:1:pos:R:3 #=T CELL(abcABC):=T 1.889726e+02=T 90.00000=T Traj:=T positionsangstrom=T Step:=T 0=T Bead:=T pbc="F F F"
C      -41.48520000     -34.20260000     -72.70180000
C      -42.18940000     -32.95410000     -72.92790000
C      -43.35250000     -33.08490000     -73.66670000
C      -43.74350000     -34.25140000     -74.32040000
C      -42.92690000     -35.35620000     -74.15240000
C      -41.85100000     -35.37670000     -73.31660000
H      -40.80710000     -34.33290000     -71.92860000
H      -43.99900000     -32.18070000     -73.68700000
H      -43.24710000     -36.31660000     -74.50290000
H      -41.35530000     -36.30740000     -73.10520000
C      -45.02150000     -34.45520000     -75.11970000
H      -45.29250000     -35.52720000     -74.86340000
H      -44.93310000     -34.54940000     -76.20770000
C      -41.78800000     -31.65170000     -72.30700000
H      -40.73800000     -31.45210000     -72.42440000
H      -42.24100000     -30.70100000     -72.57210000
S      -46.54610000     -33.43670000     -74.78110000
S      -42.02850000     -31.93700000     -70.36800000
C      -46.91770000     -33.87330000     -72.97350000
H      -47.88350000     -34.36030000     -72.77490000
H      -46.18150000     -34.58080000     -72.54250000
C      -43.83160000     -32.16480000     -70.10010000
H      -44.49690000     -31.48810000     -70.63120000
H      -43.92340000     -31.87820000     -69.09060000
C      -44.29520000     -33.56990000     -70.21560000
H      -44.48590000     -33.76760000     -71.30860000
H      -43.59330000     -34.26490000     -69.82190000
C      -47.02030000     -32.51920000     -72.32800000
H      -47.82390000     -31.92530000     -72.77430000
H      -45.98530000     -32.07160000     -72.40050000
C      -47.46390000     -32.64220000     -70.88200000
C      -48.79030000     -32.20820000     -70.60000000
C      -46.91440000     -33.37380000     -69.79190000
H      -49.37780000     -31.72090000     -71.34870000
C      -47.76020000     -33.46340000     -68.69090000
C      -45.53210000     -33.79070000     -69.38390000
C      -45.58970000     -34.42260000     -68.19670000
S      -49.37020000     -32.75900000     -69.04030000
S      -47.12970000     -34.42010000     -67.38960000
H      -44.71880000     -34.74320000     -67.63680000
