40
Properties=species:S:1:pos:R:3 #=T CELL(abcABC):=T 1.889726e+02=T 90.00000=T Traj:=T positionsangstrom=T Step:=T 0=T Bead:=T pbc="F F F"
C      -41.43190000     -33.92120000     -72.90960000
C      -42.29270000     -32.83490000     -72.99530000
C      -43.46180000     -33.09850000     -73.71800000
C      -43.77630000     -34.29560000     -74.34040000
C      -42.94300000     -35.38300000     -74.11490000
C      -41.75280000     -35.13410000     -73.47140000
H      -40.37540000     -33.79530000     -72.65530000
H      -44.12850000     -32.24930000     -73.88850000
H      -43.04860000     -36.26560000     -74.64480000
H      -40.99860000     -35.91490000     -73.45200000
C      -44.91970000     -34.39520000     -75.31230000
H      -45.21040000     -35.39010000     -75.43380000
H      -44.57780000     -33.99030000     -76.27250000
C      -41.97220000     -31.63190000     -72.11090000
H      -40.90960000     -31.34920000     -72.42070000
H      -42.71140000     -30.84630000     -72.34690000
S      -46.44010000     -33.39810000     -74.96060000
S      -42.01640000     -31.97450000     -70.34140000
C      -47.06880000     -33.59730000     -73.16890000
H      -48.02280000     -33.94860000     -73.39340000
H      -46.43910000     -34.47550000     -72.77040000
C      -43.78410000     -32.39560000     -70.02080000
H      -44.42890000     -31.77210000     -70.64880000
H      -43.90500000     -32.12710000     -68.88620000
C      -44.33310000     -33.80160000     -70.24020000
H      -44.42290000     -33.97210000     -71.30020000
H      -43.60980000     -34.54760000     -69.83690000
C      -46.86510000     -32.41630000     -72.17090000
H      -47.13250000     -31.49530000     -72.68060000
H      -45.78380000     -32.30270000     -71.96670000
C      -47.58970000     -32.76840000     -70.83090000
C      -48.95870000     -32.47090000     -70.54370000
C      -46.93140000     -33.33740000     -69.70710000
H      -49.62140000     -32.07780000     -71.28600000
C      -47.72790000     -33.39260000     -68.55550000
C      -45.63760000     -33.94350000     -69.39050000
C      -45.55630000     -34.52350000     -68.18630000
S      -49.34520000     -32.83270000     -68.85570000
S      -47.10290000     -34.36920000     -67.31430000
H      -44.84940000     -35.19270000     -67.80070000
