40
Properties=species:S:1:pos:R:3 #=T CELL(abcABC):=T 1.889726e+02=T 90.00000=T Traj:=T positionsangstrom=T Step:=T 0=T Bead:=T pbc="F F F"
C      -45.21830000     -35.77930000     -72.44560000
C      -46.40070000     -35.21710000     -72.95540000
C      -47.35210000     -34.71940000     -72.06060000
C      -47.21820000     -34.80930000     -70.67010000
C      -46.03240000     -35.41450000     -70.15060000
C      -45.08860000     -35.94650000     -71.12470000
H      -44.40020000     -36.04820000     -73.03310000
H      -48.25190000     -34.13650000     -72.41240000
H      -45.93230000     -35.50690000     -69.09940000
H      -44.18590000     -36.46990000     -70.63950000
C      -48.30210000     -34.28760000     -69.71160000
H      -48.59430000     -35.04930000     -69.05400000
H      -49.18540000     -34.06830000     -70.33390000
C      -46.56830000     -35.07890000     -74.45140000
H      -46.21080000     -36.02820000     -74.89910000
H      -47.53430000     -34.93480000     -74.88790000
S      -48.06650000     -32.68810000     -68.85250000
S      -45.26570000     -33.73540000     -74.98530000
C      -47.59090000     -31.51900000     -70.27910000
H      -47.65850000     -32.10950000     -71.19310000
H      -48.39780000     -30.80510000     -70.38230000
C      -45.91870000     -32.27220000     -73.92280000
H      -46.45800000     -32.81880000     -73.15000000
H      -46.47600000     -31.63400000     -74.56760000
C      -44.89690000     -31.33520000     -73.23850000
H      -44.23050000     -30.76740000     -73.92870000
H      -45.55010000     -30.49460000     -72.83740000
C      -46.16650000     -30.91310000     -69.97930000
H      -46.25680000     -30.34510000     -69.12350000
H      -45.87840000     -30.15920000     -70.73670000
C      -45.09700000     -31.95030000     -69.86350000
C      -44.77160000     -32.40250000     -68.63630000
C      -44.16290000     -32.29850000     -70.89790000
H      -45.52170000     -32.28310000     -67.84170000
C      -43.19560000     -33.08780000     -70.35390000
C      -43.96970000     -31.99130000     -72.29210000
C      -42.77780000     -32.55440000     -72.76180000
S      -43.34250000     -33.38020000     -68.63850000
S      -42.04940000     -33.59980000     -71.54640000
H      -42.52650000     -32.70600000     -73.82410000
