40
Properties=species:S:1:pos:R:3 #=T CELL(abcABC):=T 1.889726e+02=T 90.00000=T Traj:=T positionsangstrom=T Step:=T 0=T Bead:=T pbc="F F F"
C      -41.47930000     -33.88710000     -72.89140000
C      -42.40120000     -32.83410000     -72.84820000
C      -43.44670000     -32.98340000     -73.76960000
C      -43.78310000     -34.17270000     -74.39860000
C      -42.80520000     -35.19170000     -74.40450000
C      -41.63410000     -35.03070000     -73.64550000
H      -40.68120000     -33.93350000     -72.09160000
H      -44.14030000     -32.20340000     -73.94020000
H      -42.95860000     -36.18700000     -74.77740000
H      -40.95750000     -35.90720000     -73.49450000
C      -45.11430000     -34.41110000     -75.15250000
H      -45.59390000     -35.40750000     -74.96150000
H      -44.83880000     -34.37880000     -76.26880000
C      -42.16680000     -31.55110000     -72.06630000
H      -41.27200000     -31.02970000     -72.36360000
H      -42.96450000     -30.83440000     -72.19470000
S      -46.39400000     -33.12030000     -74.86800000
S      -42.03070000     -32.10600000     -70.23950000
C      -46.96820000     -33.81030000     -73.29150000
H      -48.02880000     -34.17940000     -73.34290000
H      -46.33770000     -34.65220000     -73.04560000
C      -43.83870000     -32.28500000     -69.84900000
H      -44.42610000     -31.59280000     -70.35810000
H      -44.01630000     -32.05040000     -68.80460000
C      -44.39070000     -33.76500000     -70.18840000
H      -44.56060000     -33.78850000     -71.21600000
H      -43.65010000     -34.60710000     -69.99040000
C      -46.97910000     -32.63610000     -72.24870000
H      -47.62040000     -31.85110000     -72.65050000
H      -46.02590000     -32.19640000     -72.19750000
C      -47.53960000     -32.93840000     -70.90210000
C      -48.77110000     -32.33750000     -70.58300000
C      -46.89310000     -33.56730000     -69.76460000
H      -49.24850000     -31.63430000     -71.25700000
C      -47.82620000     -33.78770000     -68.73900000
C      -45.58220000     -34.11020000     -69.35580000
C      -45.54220000     -34.50650000     -68.10430000
S      -49.30480000     -32.83870000     -69.02350000
S      -47.05810000     -34.34910000     -67.22190000
H      -44.68840000     -34.84540000     -67.56990000
