40
Properties=species:S:1:pos:R:3 #=T CELL(abcABC):=T 1.889726e+02=T 90.00000=T Traj:=T positionsangstrom=T Step:=T 0=T Bead:=T pbc="F F F"
C      -49.05350000     -33.93920000     -73.27650000
C      -47.89220000     -34.75380000     -73.14670000
C      -46.70530000     -34.46360000     -73.83230000
C      -46.52860000     -33.14950000     -74.46200000
C      -47.62230000     -32.28950000     -74.39100000
C      -48.88190000     -32.73160000     -73.91480000
H      -50.00230000     -34.24910000     -72.82200000
H      -45.82280000     -35.05820000     -73.73100000
H      -47.50700000     -31.26960000     -74.74250000
H      -49.70990000     -32.05900000     -74.06890000
C      -45.21250000     -32.94030000     -75.08060000
H      -45.36440000     -32.92070000     -76.17600000
H      -44.46690000     -33.75040000     -74.89070000
C      -47.92890000     -36.04500000     -72.38070000
H      -48.64730000     -36.72470000     -72.73460000
H      -47.02130000     -36.62680000     -72.46810000
S      -44.32420000     -31.29280000     -74.67410000
S      -48.32580000     -35.96000000     -70.54210000
C      -43.33840000     -31.65570000     -73.15260000
H      -42.49990000     -32.26880000     -73.42820000
H      -42.94390000     -30.62740000     -72.92460000
C      -46.82530000     -35.69130000     -69.67370000
H      -46.39620000     -36.68870000     -69.55830000
H      -47.10780000     -35.24770000     -68.70770000
C      -45.85600000     -34.63260000     -70.30600000
H      -45.54710000     -35.09440000     -71.25910000
H      -46.50900000     -33.85030000     -70.65460000
C      -44.30510000     -32.29210000     -72.02230000
H      -44.56660000     -33.29310000     -72.27690000
H      -45.17300000     -31.65360000     -72.23950000
C      -43.70840000     -32.12110000     -70.63190000
C      -42.74800000     -31.16060000     -70.42670000
C      -43.94820000     -33.06070000     -69.57750000
H      -42.20980000     -30.47420000     -70.98080000
C      -43.08500000     -32.81410000     -68.49610000
C      -44.78600000     -34.21770000     -69.44340000
C      -44.64060000     -34.72200000     -68.16370000
S      -42.08020000     -31.38280000     -68.79950000
S      -43.32660000     -34.01020000     -67.24660000
H      -45.12260000     -35.46390000     -67.64780000
