40
Properties=species:S:1:pos:R:3 #=T CELL(abcABC):=T 1.889726e+02=T 90.00000=T Traj:=T positionsangstrom=T Step:=T 0=T Bead:=T pbc="F F F"
C      -43.21450000     -35.10660000     -73.48780000
C      -43.73530000     -33.82580000     -73.67390000
C      -44.93840000     -33.65890000     -74.39030000
C      -45.80420000     -34.70110000     -74.80210000
C      -45.27270000     -35.99370000     -74.60070000
C      -44.03860000     -36.18960000     -73.94820000
H      -42.32090000     -35.16970000     -72.87980000
H      -45.25650000     -32.58700000     -74.53570000
H      -45.80080000     -36.89350000     -74.89450000
H      -43.82910000     -37.21350000     -73.67730000
C      -47.14400000     -34.50570000     -75.38110000
H      -47.63830000     -35.37440000     -75.84090000
H      -47.18530000     -33.67060000     -76.10780000
C      -42.83180000     -32.59550000     -73.35790000
H      -41.75320000     -32.86210000     -73.36820000
H      -42.95010000     -31.81890000     -74.12510000
S      -48.34510000     -34.14280000     -73.95810000
S      -43.09390000     -31.92790000     -71.66360000
C      -47.42150000     -34.53860000     -72.33290000
H      -48.22050000     -34.92600000     -71.69750000
H      -46.71140000     -35.36170000     -72.44820000
C      -44.53350000     -30.76140000     -71.86070000
H      -45.22650000     -31.21800000     -72.56330000
H      -43.98550000     -29.85990000     -72.33100000
C      -45.28290000     -30.39710000     -70.57320000
H      -45.10230000     -29.33700000     -70.37850000
H      -46.40410000     -30.51720000     -70.83230000
C      -46.85990000     -33.38340000     -71.57210000
H      -47.69910000     -32.69860000     -71.44260000
H      -46.19480000     -32.77200000     -72.24110000
C      -46.25560000     -33.69150000     -70.12280000
C      -46.46320000     -34.88100000     -69.40390000
C      -45.53240000     -32.72580000     -69.27770000
H      -46.85450000     -35.84090000     -69.68560000
C      -45.23360000     -33.27210000     -68.05230000
C      -45.04880000     -31.30200000     -69.37650000
C      -44.54560000     -30.85330000     -68.16910000
S      -45.86870000     -34.81930000     -67.75620000
S      -44.38670000     -32.15960000     -66.95460000
H      -43.92860000     -29.89590000     -67.95630000
