40
Properties=species:S:1:pos:R:3 #=T CELL(abcABC):=T 1.889726e+02=T 90.00000=T Traj:=T positionsangstrom=T Step:=T 0=T Bead:=T pbc="F F F"
C      -48.76010000     -33.97560000     -73.31410000
C      -47.67020000     -34.79540000     -73.05590000
C      -46.52740000     -34.50490000     -73.76510000
C      -46.41840000     -33.50040000     -74.72880000
C      -47.54870000     -32.74760000     -74.99130000
C      -48.72660000     -33.00930000     -74.33540000
H      -49.68100000     -34.23290000     -72.90920000
H      -45.73630000     -35.22870000     -73.76440000
H      -47.48350000     -32.06830000     -75.77670000
H      -49.66220000     -32.42400000     -74.51340000
C      -45.19410000     -33.30810000     -75.54510000
H      -45.40180000     -32.88170000     -76.55660000
H      -44.60690000     -34.21320000     -75.68970000
C      -47.78230000     -36.09070000     -72.19930000
H      -48.54250000     -36.84350000     -72.64350000
H      -46.78670000     -36.72320000     -72.11750000
S      -43.87020000     -32.19990000     -74.82800000
S      -48.49310000     -35.87110000     -70.46680000
C      -43.56990000     -32.89750000     -73.08620000
H      -43.89520000     -33.95450000     -73.20590000
H      -42.50980000     -32.80540000     -73.00010000
C      -47.23180000     -35.06980000     -69.39640000
H      -46.42110000     -35.81040000     -69.25810000
H      -47.83480000     -34.88820000     -68.46520000
C      -46.47220000     -33.83150000     -69.95280000
H      -46.19100000     -33.87200000     -71.01310000
H      -47.02040000     -32.91080000     -69.81200000
C      -44.22470000     -31.95230000     -72.09590000
H      -45.32460000     -31.94010000     -72.21510000
H      -44.10390000     -30.88110000     -72.53320000
C      -43.58820000     -32.00790000     -70.69570000
C      -42.45910000     -31.29740000     -70.43880000
C      -43.98000000     -32.76390000     -69.53090000
H      -41.80230000     -30.76590000     -71.06990000
C      -43.14700000     -32.54260000     -68.46060000
C      -45.13020000     -33.62950000     -69.18820000
C      -45.05580000     -33.94930000     -67.84570000
S      -41.86750000     -31.54680000     -68.82410000
S      -43.60320000     -33.33370000     -67.03040000
H      -45.69490000     -34.76700000     -67.41080000
