40
Properties=species:S:1:pos:R:3 #=T CELL(abcABC):=T 1.889726e+02=T 90.00000=T Traj:=T positionsangstrom=T Step:=T 0=T Bead:=T pbc="F F F"
C      -43.08030000     -34.37830000     -72.31080000
C      -43.43710000     -33.52960000     -73.39710000
C      -44.55000000     -33.91210000     -74.17070000
C      -45.22570000     -35.09350000     -73.98730000
C      -44.86180000     -35.89130000     -72.88830000
C      -43.72830000     -35.59850000     -72.08380000
H      -42.21690000     -34.15480000     -71.66470000
H      -44.84960000     -33.27820000     -74.95860000
H      -45.23250000     -36.88270000     -72.69380000
H      -43.35970000     -36.32550000     -71.34830000
C      -46.42880000     -35.47270000     -74.77880000
H      -46.45860000     -36.56020000     -74.79670000
H      -46.47800000     -35.13870000     -75.80850000
C      -42.68700000     -32.27960000     -73.67010000
H      -41.61300000     -32.34380000     -73.76330000
H      -43.10950000     -31.77650000     -74.47220000
S      -48.03900000     -34.84940000     -74.03180000
S      -43.02280000     -31.10380000     -72.26740000
C      -47.85230000     -34.82210000     -72.19410000
H      -48.86660000     -34.93940000     -71.75720000
H      -47.26960000     -35.72840000     -71.89640000
C      -44.83960000     -30.85360000     -72.48450000
H      -45.17010000     -31.80910000     -72.89480000
H      -45.04830000     -30.04660000     -73.18540000
C      -45.58280000     -30.62050000     -71.10580000
H      -45.42070000     -29.66790000     -70.75470000
H      -46.76090000     -30.78140000     -71.33380000
C      -47.14600000     -33.62960000     -71.63150000
H      -47.75120000     -32.66630000     -71.72690000
H      -46.28810000     -33.41030000     -72.35750000
C      -46.71350000     -33.74080000     -70.22260000
C      -46.96530000     -34.75410000     -69.38730000
C      -45.77620000     -32.78920000     -69.63850000
H      -47.69020000     -35.63740000     -69.59690000
C      -45.36460000     -33.24310000     -68.35960000
C      -45.21500000     -31.49900000     -69.96600000
C      -44.54640000     -30.92650000     -68.89070000
S      -46.20010000     -34.75220000     -67.80590000
S      -44.47000000     -32.00370000     -67.53010000
H      -44.14180000     -29.94250000     -68.87030000
