40
Properties=species:S:1:pos:R:3 #=T CELL(abcABC):=T 1.889726e+02=T 90.00000=T Traj:=T positionsangstrom=T Step:=T 0=T Bead:=T pbc="F F F"
C      -48.28070000     -36.19850000     -72.25440000
C      -48.37750000     -34.83480000     -72.45440000
C      -47.54340000     -34.15300000     -73.33770000
C      -46.79370000     -34.87950000     -74.22930000
C      -46.77030000     -36.25720000     -74.10610000
C      -47.50180000     -36.98740000     -73.16680000
H      -49.01360000     -36.54690000     -71.54960000
H      -47.68960000     -33.11110000     -73.35840000
H      -46.18180000     -36.78900000     -74.83950000
H      -47.33090000     -38.01720000     -73.07270000
C      -45.74900000     -34.21300000     -75.09870000
H      -46.06940000     -33.90950000     -76.03040000
H      -44.91060000     -34.85780000     -75.17570000
C      -49.32980000     -34.01030000     -71.59390000
H      -50.25600000     -33.83250000     -72.14000000
H      -49.61880000     -34.53070000     -70.67910000
S      -45.09660000     -32.58730000     -74.51280000
S      -48.72980000     -32.32830000     -71.10870000
C      -44.12650000     -32.97560000     -73.04400000
H      -44.69760000     -33.62010000     -72.43560000
H      -43.19880000     -33.56220000     -73.30020000
C      -47.50740000     -32.58710000     -69.71830000
H      -47.71550000     -33.55590000     -69.25060000
H      -47.65610000     -31.80370000     -69.04730000
C      -46.12440000     -32.44150000     -70.30160000
H      -45.98390000     -33.17770000     -71.15060000
H      -45.95460000     -31.40710000     -70.75270000
C      -43.68690000     -31.69800000     -72.30570000
H      -44.55230000     -30.96100000     -72.27690000
H      -42.95510000     -31.25080000     -72.97000000
C      -42.97580000     -31.99480000     -71.02520000
C      -41.64330000     -32.02900000     -70.93380000
C      -43.56580000     -32.56100000     -69.80360000
H      -40.91470000     -31.65160000     -71.66790000
C      -42.63820000     -32.94570000     -68.84220000
C      -44.91210000     -32.75630000     -69.35960000
C      -44.98740000     -33.24480000     -68.06830000
S      -40.99040000     -32.70520000     -69.40510000
S      -43.32270000     -33.53640000     -67.38900000
H      -45.86920000     -33.39250000     -67.50840000
