40
Properties=species:S:1:pos:R:3 #=T CELL(abcABC):=T 1.889726e+02=T 90.00000=T Traj:=T positionsangstrom=T Step:=T 0=T Bead:=T pbc="F F F"
C      -42.73850000     -34.51610000     -71.62950000
C      -43.37970000     -33.85510000     -72.68550000
C      -44.63760000     -34.40470000     -73.06240000
C      -45.26610000     -35.44010000     -72.26670000
C      -44.52970000     -35.98840000     -71.24770000
C      -43.28580000     -35.53820000     -70.90650000
H      -41.73080000     -34.16930000     -71.51240000
H      -45.15750000     -33.85980000     -73.84210000
H      -44.99990000     -36.72740000     -70.66220000
H      -42.75590000     -35.92820000     -70.07940000
C      -46.69620000     -35.85060000     -72.61200000
H      -47.27760000     -36.12590000     -71.66240000
H      -46.62810000     -36.81200000     -73.12630000
C      -42.61460000     -32.77990000     -73.40200000
H      -41.50060000     -32.85480000     -73.36820000
H      -42.93260000     -32.79790000     -74.41820000
S      -47.52170000     -34.75390000     -73.80000000
S      -42.96890000     -31.08110000     -72.77200000
C      -48.58960000     -33.76240000     -72.75920000
H      -49.23720000     -33.30520000     -73.51840000
H      -49.25570000     -34.33530000     -72.05130000
C      -44.79820000     -30.82510000     -72.87180000
H      -45.28600000     -31.58820000     -73.42930000
H      -44.88160000     -29.88750000     -73.49870000
C      -45.46600000     -30.44890000     -71.50770000
H      -45.04740000     -29.46690000     -71.23300000
H      -46.57500000     -30.29280000     -71.67040000
C      -47.84760000     -32.68320000     -71.94790000
H      -48.49020000     -31.82890000     -71.82440000
H      -47.04380000     -32.23640000     -72.53560000
C      -47.26730000     -33.15950000     -70.63930000
C      -47.63610000     -34.25320000     -69.87280000
C      -46.04970000     -32.58940000     -70.11380000
H      -48.52220000     -34.82720000     -70.10090000
C      -45.57850000     -33.26470000     -69.00770000
C      -45.20710000     -31.49310000     -70.47050000
C      -44.11430000     -31.37460000     -69.60990000
S      -46.56710000     -34.57980000     -68.47260000
S      -43.94220000     -32.70700000     -68.47580000
H      -43.41200000     -30.53500000     -69.64570000
