40
Properties=species:S:1:pos:R:3 #=T CELL(abcABC):=T 1.889726e+02=T 90.00000=T Traj:=T positionsangstrom=T Step:=T 0=T Bead:=T pbc="F F F"
C      -48.46910000     -34.44150000     -73.79210000
C      -47.42630000     -35.27550000     -73.29280000
C      -46.11540000     -34.94290000     -73.72110000
C      -45.74860000     -33.83950000     -74.46930000
C      -46.81310000     -32.93760000     -74.82710000
C      -48.14160000     -33.27840000     -74.49700000
H      -49.54710000     -34.64360000     -73.57230000
H      -45.35730000     -35.81560000     -73.51000000
H      -46.71190000     -31.98370000     -75.34450000
H      -49.03580000     -32.67150000     -74.79510000
C      -44.33970000     -33.64000000     -74.90700000
H      -44.19740000     -34.03430000     -75.89770000
H      -43.70370000     -34.33540000     -74.29270000
C      -47.69920000     -36.44570000     -72.40250000
H      -48.40440000     -37.12040000     -72.83130000
H      -46.80660000     -37.09970000     -72.37320000
S      -43.67990000     -31.96170000     -74.81570000
S      -48.46270000     -35.83600000     -70.75940000
C      -43.19200000     -31.65570000     -73.03200000
H      -42.44710000     -32.38260000     -72.62880000
H      -42.72650000     -30.67350000     -72.97900000
C      -46.93960000     -35.73280000     -69.70850000
H      -46.40420000     -36.64460000     -69.87600000
H      -47.14770000     -35.51310000     -68.68180000
C      -46.12450000     -34.54700000     -70.25250000
H      -45.67070000     -34.78800000     -71.24480000
H      -46.80160000     -33.78820000     -70.54080000
C      -44.35510000     -31.92010000     -72.12750000
H      -44.65950000     -32.96740000     -72.26140000
H      -45.16550000     -31.31240000     -72.31500000
C      -43.87640000     -31.86330000     -70.63760000
C      -43.17690000     -30.74690000     -70.20110000
C      -44.28610000     -32.69860000     -69.49350000
H      -42.84790000     -29.89240000     -70.77060000
C      -43.69530000     -32.29350000     -68.33310000
C      -45.12960000     -33.92280000     -69.29090000
C      -44.95770000     -34.41200000     -68.03380000
S      -42.90270000     -30.74000000     -68.48680000
S      -44.08450000     -33.27950000     -66.95520000
H      -45.59150000     -35.21890000     -67.56070000
