40
Properties=species:S:1:pos:R:3 #=T CELL(abcABC):=T 1.889726e+02=T 90.00000=T Traj:=T positionsangstrom=T Step:=T 0=T Bead:=T pbc="F F F"
C      -42.58320000     -34.59720000     -71.54740000
C      -43.22160000     -33.84610000     -72.51180000
C      -44.50990000     -34.25420000     -72.89180000
C      -45.20930000     -35.29280000     -72.30750000
C      -44.54260000     -35.96350000     -71.28540000
C      -43.24780000     -35.65800000     -70.92720000
H      -41.57360000     -34.31010000     -71.24540000
H      -44.99150000     -33.72750000     -73.78540000
H      -44.95760000     -36.82290000     -70.83330000
H      -42.65120000     -36.15480000     -70.16310000
C      -46.58480000     -35.78410000     -72.64550000
H      -47.18860000     -35.79100000     -71.76780000
H      -46.49670000     -36.84010000     -72.95480000
C      -42.57730000     -32.75330000     -73.32400000
H      -41.52540000     -32.88520000     -73.02080000
H      -42.69150000     -32.88530000     -74.42860000
S      -47.72450000     -34.92010000     -73.84420000
S      -42.92930000     -31.02940000     -72.72380000
C      -48.70990000     -33.80860000     -72.74780000
H      -49.38220000     -33.24350000     -73.41490000
H      -49.37600000     -34.41710000     -72.16510000
C      -44.72550000     -30.92840000     -72.98990000
H      -45.00410000     -31.99090000     -73.22170000
H      -45.19450000     -30.33080000     -73.82700000
C      -45.31300000     -30.45060000     -71.61090000
H      -44.76040000     -29.60580000     -71.33580000
H      -46.38730000     -30.16870000     -71.74530000
C      -47.93860000     -32.64180000     -71.99650000
H      -48.64740000     -31.78690000     -71.75750000
H      -47.13400000     -32.21790000     -72.60880000
C      -47.32030000     -33.08760000     -70.64000000
C      -47.79870000     -34.03240000     -69.78110000
C      -46.02620000     -32.60460000     -70.16510000
H      -48.74730000     -34.58530000     -69.92120000
C      -45.55980000     -33.29700000     -69.05370000
C      -45.08000000     -31.55710000     -70.55280000
C      -44.00770000     -31.47870000     -69.69740000
S      -46.67140000     -34.46310000     -68.45830000
S      -43.97980000     -32.75320000     -68.47930000
H      -43.21420000     -30.69230000     -69.70430000
