40
Properties=species:S:1:pos:R:3 #=T CELL(abcABC):=T 1.889726e+02=T 90.00000=T Traj:=T positionsangstrom=T Step:=T 0=T Bead:=T pbc="F F F"
C      -42.63990000     -34.53340000     -71.46450000
C      -43.30770000     -34.02630000     -72.65400000
C      -44.53550000     -34.46860000     -72.97870000
C      -45.21170000     -35.39440000     -72.23750000
C      -44.52550000     -35.97210000     -71.19060000
C      -43.24380000     -35.57450000     -70.80750000
H      -41.63410000     -34.15580000     -71.15250000
H      -44.99790000     -34.15410000     -73.83270000
H      -44.91090000     -36.82740000     -70.58080000
H      -42.83380000     -36.03940000     -69.92390000
C      -46.64580000     -35.79010000     -72.56630000
H      -47.30290000     -35.81180000     -71.67340000
H      -46.80520000     -36.78700000     -72.90490000
C      -42.56340000     -33.01760000     -73.42370000
H      -41.47550000     -33.25130000     -73.46220000
H      -43.02210000     -33.00640000     -74.40530000
S      -47.33940000     -34.68030000     -73.89920000
S      -42.75900000     -31.31460000     -72.79310000
C      -48.62390000     -33.64240000     -72.89490000
H      -49.12750000     -33.15360000     -73.69320000
H      -49.27910000     -34.39510000     -72.40370000
C      -44.59840000     -30.88310000     -72.97360000
H      -45.18720000     -31.79620000     -73.33760000
H      -44.67730000     -30.15770000     -73.84060000
C      -45.18530000     -30.48990000     -71.65150000
H      -44.58330000     -29.59330000     -71.32020000
H      -46.21370000     -30.16250000     -71.79290000
C      -48.11900000     -32.58410000     -71.88820000
H      -48.94210000     -31.89060000     -71.62150000
H      -47.37090000     -31.81690000     -72.29790000
C      -47.46090000     -32.97530000     -70.57920000
C      -47.92160000     -33.98700000     -69.81240000
C      -46.16500000     -32.50970000     -70.12140000
H      -48.76560000     -34.61280000     -69.80020000
C      -45.74020000     -33.14120000     -68.90480000
C      -45.14070000     -31.51380000     -70.51000000
C      -44.01450000     -31.62580000     -69.74810000
S      -46.78600000     -34.43860000     -68.47400000
S      -44.15060000     -32.69270000     -68.44080000
H      -43.20060000     -30.99260000     -69.82780000
