40
Properties=species:S:1:pos:R:3 #=T CELL(abcABC):=T 1.889726e+02=T 90.00000=T Traj:=T positionsangstrom=T Step:=T 0=T Bead:=T pbc="F F F"
C      -41.68520000     -33.91140000     -73.14740000
C      -42.00920000     -32.76920000     -72.51020000
C      -43.06780000     -31.95900000     -72.97490000
C      -43.70650000     -32.31350000     -74.13300000
C      -43.24920000     -33.38370000     -74.90490000
C      -42.25130000     -34.27410000     -74.36940000
H      -40.99250000     -34.53600000     -72.68810000
H      -43.27660000     -30.98660000     -72.47450000
H      -43.77560000     -33.55960000     -75.77740000
H      -41.84970000     -35.15660000     -74.78220000
C      -44.76520000     -31.39700000     -74.77680000
H      -45.36670000     -31.85250000     -75.57350000
H      -44.33270000     -30.48290000     -75.22280000
C      -41.25710000     -32.38910000     -71.27840000
H      -40.12700000     -32.65480000     -71.27850000
H      -41.29330000     -31.33940000     -71.05940000
S      -45.88660000     -30.66660000     -73.59240000
S      -41.90870000     -33.30520000     -69.74740000
C      -46.79460000     -32.11290000     -72.89260000
H      -47.75600000     -32.21030000     -73.43040000
H      -46.13720000     -32.98720000     -72.90840000
C      -43.74670000     -33.23490000     -69.82120000
H      -44.07330000     -32.19740000     -70.10380000
H      -44.11780000     -33.32180000     -68.82230000
C      -44.46690000     -34.29240000     -70.71340000
H      -44.81310000     -33.73080000     -71.62010000
H      -43.86720000     -35.17040000     -71.03400000
C      -46.99800000     -31.93910000     -71.39800000
H      -47.49440000     -30.97050000     -71.19340000
H      -46.01480000     -31.86580000     -70.92430000
C      -47.69460000     -32.97570000     -70.64050000
C      -49.04220000     -32.84810000     -70.36510000
C      -47.06380000     -34.11290000     -70.00880000
H      -49.71270000     -32.03500000     -70.65760000
C      -48.03750000     -34.90020000     -69.30060000
C      -45.74140000     -34.69670000     -69.96300000
C      -45.81160000     -35.89130000     -69.29910000
S      -49.67510000     -34.15850000     -69.47620000
S      -47.29760000     -36.24030000     -68.48650000
H      -44.92240000     -36.46620000     -69.06540000
