40
Properties=species:S:1:pos:R:3 #=T CELL(abcABC):=T 1.889726e+02=T 90.00000=T Traj:=T positionsangstrom=T Step:=T 0=T Bead:=T pbc="F F F"
C      -43.06200000     -34.63200000     -71.19450000
C      -43.31410000     -34.35380000     -72.54950000
C      -44.57950000     -34.72040000     -73.06740000
C      -45.45270000     -35.53240000     -72.42380000
C      -45.11460000     -35.94790000     -71.10640000
C      -43.89880000     -35.54990000     -70.52400000
H      -42.12130000     -34.29400000     -70.77660000
H      -44.82700000     -34.45000000     -74.04670000
H      -45.80360000     -36.69420000     -70.61680000
H      -43.65730000     -35.85300000     -69.48050000
C      -46.81520000     -35.85190000     -72.97930000
H      -47.48330000     -36.02490000     -72.16820000
H      -46.83950000     -36.68110000     -73.67040000
C      -42.33970000     -33.43350000     -73.29460000
H      -41.29070000     -33.77730000     -73.22600000
H      -42.63780000     -33.40330000     -74.36080000
S      -47.47310000     -34.37680000     -73.99230000
S      -42.44970000     -31.67070000     -72.90450000
C      -48.61800000     -33.59890000     -72.83240000
H      -49.40410000     -33.11630000     -73.48940000
H      -49.07140000     -34.40510000     -72.25070000
C      -44.27630000     -31.32950000     -73.08160000
H      -44.79210000     -32.31680000     -73.28880000
H      -44.37840000     -30.73310000     -73.93390000
C      -44.94340000     -30.64910000     -71.90220000
H      -44.29880000     -29.81950000     -71.54660000
H      -45.96770000     -30.33470000     -72.20430000
C      -47.99660000     -32.52990000     -71.88410000
H      -48.85160000     -31.89950000     -71.64990000
H      -47.21740000     -32.02420000     -72.47810000
C      -47.27560000     -33.04470000     -70.66050000
C      -47.81790000     -33.95460000     -69.75780000
C      -45.98580000     -32.44590000     -70.18640000
H      -48.60720000     -34.64660000     -69.84190000
C      -45.56940000     -33.09150000     -69.01280000
C      -44.98260000     -31.51510000     -70.62890000
C      -44.04010000     -31.31390000     -69.64020000
S      -46.80840000     -34.09330000     -68.29720000
S      -44.13720000     -32.38940000     -68.26110000
H      -43.13980000     -30.81880000     -69.87200000
