40
Properties=species:S:1:pos:R:3 #=T CELL(abcABC):=T 1.889726e+02=T 90.00000=T Traj:=T positionsangstrom=T Step:=T 0=T Bead:=T pbc="F F F"
C      -47.98050000     -33.75480000     -68.94340000
C      -48.08170000     -32.48220000     -69.42430000
C      -48.61960000     -32.30700000     -70.72830000
C      -48.69120000     -33.46180000     -71.52080000
C      -48.48840000     -34.77900000     -71.03880000
C      -48.19780000     -34.94870000     -69.72820000
H      -47.70690000     -33.90180000     -67.87070000
H      -48.93910000     -31.34220000     -71.01970000
H      -48.36990000     -35.55010000     -71.85510000
H      -48.05080000     -35.92420000     -69.26990000
C      -49.16630000     -33.25520000     -72.93360000
H      -49.84260000     -32.40140000     -72.97980000
H      -49.87850000     -34.08350000     -73.05250000
C      -47.54730000     -31.34680000     -68.57630000
H      -48.03270000     -30.35070000     -68.73760000
H      -47.53270000     -31.74550000     -67.58040000
S      -47.97370000     -33.34400000     -74.26500000
S      -45.79850000     -30.79850000     -69.09710000
C      -46.53060000     -34.32850000     -73.44760000
H      -46.94350000     -35.02280000     -72.74040000
H      -46.11740000     -35.06220000     -74.20910000
C      -44.60580000     -32.10980000     -68.51820000
H      -44.72520000     -32.24750000     -67.43600000
H      -43.62330000     -31.70980000     -68.64410000
C      -44.66550000     -33.37930000     -69.41140000
H      -44.89460000     -34.21330000     -68.78420000
H      -45.50020000     -33.21210000     -70.09940000
C      -45.51250000     -33.29540000     -72.88780000
H      -45.87930000     -33.00110000     -71.86230000
H      -45.44880000     -32.38550000     -73.52220000
C      -44.12780000     -33.84410000     -72.86930000
C      -43.44240000     -34.16790000     -74.03100000
C      -43.27650000     -33.83710000     -71.64800000
H      -43.96160000     -34.28660000     -74.97950000
C      -41.96030000     -34.13490000     -72.03760000
C      -43.41420000     -33.58730000     -70.23740000
C      -42.20310000     -33.69350000     -69.53510000
S      -41.76100000     -34.52740000     -73.69780000
S      -40.89500000     -34.19850000     -70.65330000
H      -41.92840000     -33.40470000     -68.53190000
