40
Properties=species:S:1:pos:R:3 #=T CELL(abcABC):=T 1.889726e+02=T 90.00000=T Traj:=T positionsangstrom=T Step:=T 0=T Bead:=T pbc="F F F"
C      -43.19120000     -35.28680000     -71.17010000
C      -43.48350000     -34.81950000     -72.44120000
C      -44.77340000     -35.07500000     -72.98050000
C      -45.83870000     -35.66110000     -72.24310000
C      -45.47490000     -36.21570000     -71.00100000
C      -44.16390000     -36.06660000     -70.46770000
H      -42.37630000     -35.03450000     -70.49250000
H      -44.95400000     -34.47460000     -73.89630000
H      -46.29640000     -36.72320000     -70.43830000
H      -43.96220000     -36.33530000     -69.40490000
C      -47.24870000     -35.76770000     -72.71200000
H      -47.96940000     -35.89290000     -71.88620000
H      -47.25800000     -36.73400000     -73.25420000
C      -42.45890000     -34.07980000     -73.21250000
H      -41.51120000     -34.65290000     -73.14940000
H      -42.76640000     -33.98470000     -74.26360000
S      -47.75910000     -34.39600000     -73.89130000
S      -42.23030000     -32.36160000     -72.52810000
C      -48.45870000     -32.83700000     -73.04310000
H      -48.91100000     -32.26330000     -73.88990000
H      -49.23030000     -33.26790000     -72.38360000
C      -43.78700000     -31.55050000     -73.06520000
H      -44.50430000     -32.39390000     -73.23890000
H      -43.65960000     -30.95760000     -74.01790000
C      -44.23840000     -30.59070000     -71.94550000
H      -43.49940000     -29.86830000     -71.74790000
H      -45.16950000     -30.10230000     -72.32070000
C      -47.36300000     -32.00910000     -72.36860000
H      -47.69520000     -30.95970000     -72.24440000
H      -46.47830000     -31.96100000     -73.05450000
C      -46.95940000     -32.45230000     -70.97540000
C      -47.75250000     -33.26650000     -70.23840000
C      -45.78380000     -32.04740000     -70.27710000
H      -48.67940000     -33.59220000     -70.56990000
C      -45.70370000     -32.66560000     -69.00450000
C      -44.60250000     -31.31680000     -70.57520000
C      -43.65680000     -31.43390000     -69.55650000
S      -47.17710000     -33.54750000     -68.63030000
S      -44.22030000     -32.38730000     -68.16800000
H      -42.60270000     -31.14100000     -69.63160000
