40
Properties=species:S:1:pos:R:3 #=T CELL(abcABC):=T 1.889726e+02=T 90.00000=T Traj:=T positionsangstrom=T Step:=T 0=T Bead:=T pbc="F F F"
C      -43.18980000     -35.28680000     -71.14960000
C      -43.51130000     -34.76170000     -72.41370000
C      -44.84730000     -34.74060000     -72.86300000
C      -45.86050000     -35.32480000     -72.09380000
C      -45.50480000     -35.76250000     -70.81850000
C      -44.18600000     -35.74530000     -70.33970000
H      -42.08130000     -35.28780000     -70.98520000
H      -45.02640000     -34.47280000     -73.86800000
H      -46.22390000     -36.31810000     -70.25560000
H      -43.84390000     -36.15510000     -69.42390000
C      -47.27960000     -35.62690000     -72.64040000
H      -48.06510000     -35.50350000     -71.92050000
H      -47.24570000     -36.68650000     -73.00300000
C      -42.38800000     -34.07610000     -73.19420000
H      -41.43570000     -34.51540000     -72.93620000
H      -42.44330000     -33.97610000     -74.25770000
S      -47.86380000     -34.56160000     -74.06930000
S      -42.17580000     -32.25830000     -72.72940000
C      -48.45070000     -32.97380000     -73.13500000
H      -48.85110000     -32.38040000     -73.99070000
H      -49.27220000     -33.28430000     -72.55250000
C      -43.93620000     -31.61250000     -72.96450000
H      -44.67720000     -32.39920000     -73.06880000
H      -43.94050000     -31.15040000     -73.89720000
C      -44.33240000     -30.60060000     -71.86960000
H      -43.58520000     -29.77210000     -71.87570000
H      -45.23630000     -30.04980000     -72.20580000
C      -47.44380000     -32.11880000     -72.33960000
H      -47.86210000     -31.11610000     -72.15590000
H      -46.63890000     -31.90800000     -73.07350000
C      -46.99170000     -32.64980000     -70.95610000
C      -47.79230000     -33.36750000     -70.09990000
C      -45.80870000     -32.14770000     -70.24900000
H      -48.58920000     -33.96170000     -70.44540000
C      -45.60660000     -32.87980000     -69.06070000
C      -44.59590000     -31.28040000     -70.57220000
C      -43.73770000     -31.27320000     -69.49910000
S      -46.93630000     -33.87790000     -68.66020000
S      -44.20230000     -32.36000000     -68.15840000
H      -42.89810000     -30.65800000     -69.40070000
