40
Properties=species:S:1:pos:R:3 #=T CELL(abcABC):=T 1.889726e+02=T 90.00000=T Traj:=T positionsangstrom=T Step:=T 0=T Bead:=T pbc="F F F"
C      -43.60630000     -35.42320000     -70.66430000
C      -43.61290000     -35.26310000     -72.07340000
C      -44.85070000     -35.28040000     -72.67740000
C      -46.05300000     -35.33700000     -71.96840000
C      -45.93940000     -35.63250000     -70.59950000
C      -44.73740000     -35.78500000     -69.92900000
H      -42.61040000     -35.37610000     -70.13810000
H      -44.86010000     -35.20130000     -73.74420000
H      -46.82270000     -35.75500000     -70.02570000
H      -44.65770000     -35.99100000     -68.87140000
C      -47.32220000     -35.29400000     -72.66090000
H      -48.12710000     -35.14950000     -71.94750000
H      -47.51500000     -36.24840000     -73.25030000
C      -42.37030000     -35.01180000     -72.85330000
H      -41.58450000     -35.72410000     -72.59830000
H      -42.52030000     -35.28000000     -73.90830000
S      -47.37830000     -33.98690000     -74.07300000
S      -41.96400000     -33.20550000     -72.86310000
C      -48.27130000     -32.53750000     -73.22610000
H      -48.75440000     -32.01430000     -74.07130000
H      -48.97600000     -33.04670000     -72.55540000
C      -43.64080000     -32.31870000     -73.13750000
H      -44.46170000     -33.00370000     -73.04870000
H      -43.57130000     -31.93680000     -74.12240000
C      -43.78200000     -31.14870000     -72.06240000
H      -42.81690000     -30.60540000     -71.97020000
H      -44.54240000     -30.42220000     -72.43800000
C      -47.33750000     -31.59230000     -72.48450000
H      -47.76720000     -30.56720000     -72.44080000
H      -46.43710000     -31.40170000     -73.05650000
C      -46.97430000     -32.01160000     -71.08560000
C      -48.02020000     -32.40800000     -70.22510000
C      -45.67210000     -32.01690000     -70.44210000
H      -49.00230000     -32.55680000     -70.44250000
C      -45.84520000     -32.50940000     -69.11440000
C      -44.29670000     -31.66990000     -70.78630000
C      -43.46750000     -31.92070000     -69.70940000
S      -47.43340000     -32.79910000     -68.57440000
S      -44.29170000     -32.63930000     -68.34180000
H      -42.40180000     -31.79520000     -69.87420000
