40
Properties=species:S:1:pos:R:3 #=T CELL(abcABC):=T 1.889726e+02=T 90.00000=T Traj:=T positionsangstrom=T Step:=T 0=T Bead:=T pbc="F F F"
C      -43.29360000     -34.96800000     -70.98480000
C      -43.51150000     -34.58620000     -72.35440000
C      -44.82420000     -34.80070000     -72.88740000
C      -45.84270000     -35.48780000     -72.16380000
C      -45.54130000     -35.84760000     -70.86120000
C      -44.33430000     -35.51230000     -70.24430000
H      -42.27440000     -34.84580000     -70.55520000
H      -44.93630000     -34.33230000     -73.86700000
H      -46.36710000     -36.26550000     -70.32060000
H      -44.24300000     -35.74400000     -69.20920000
C      -47.19100000     -35.63000000     -72.73660000
H      -47.86700000     -35.67480000     -71.87670000
H      -47.33970000     -36.58650000     -73.26610000
C      -42.47260000     -33.99900000     -73.20180000
H      -41.50340000     -34.45480000     -73.05030000
H      -42.70290000     -34.10910000     -74.30560000
S      -47.79750000     -34.32980000     -74.01410000
S      -42.15870000     -32.16040000     -72.76620000
C      -48.51270000     -33.06870000     -72.94970000
H      -49.12600000     -32.47150000     -73.64790000
H      -49.26900000     -33.54130000     -72.25850000
C      -43.76720000     -31.44700000     -73.19280000
H      -44.41280000     -32.28790000     -73.61020000
H      -43.50910000     -30.74430000     -73.97700000
C      -44.50680000     -30.70280000     -71.95900000
H      -43.93660000     -29.79350000     -71.68980000
H      -45.49250000     -30.40350000     -72.28570000
C      -47.47930000     -32.25790000     -72.21760000
H      -47.93770000     -31.28680000     -72.02410000
H      -46.64180000     -32.08610000     -72.89680000
C      -46.91700000     -32.91590000     -70.95680000
C      -47.74180000     -33.67370000     -70.12560000
C      -45.75270000     -32.41030000     -70.29950000
H      -48.69290000     -34.12200000     -70.22830000
C      -45.64610000     -32.92800000     -69.03390000
C      -44.64460000     -31.52560000     -70.66390000
C      -43.73930000     -31.36160000     -69.63990000
S      -46.96150000     -33.95990000     -68.56050000
S      -44.12850000     -32.27240000     -68.21220000
H      -42.81670000     -30.85780000     -69.73900000
