40
Properties=species:S:1:pos:R:3 #=T CELL(abcABC):=T 1.889726e+02=T 90.00000=T Traj:=T positionsangstrom=T Step:=T 0=T Bead:=T pbc="F F F"
C      -43.67850000     -35.67130000     -70.51060000
C      -43.66180000     -35.38590000     -71.90940000
C      -44.89290000     -35.11740000     -72.52380000
C      -46.11970000     -35.31830000     -71.86470000
C      -46.09050000     -35.65840000     -70.51110000
C      -44.83850000     -35.76480000     -69.79770000
H      -42.81290000     -35.85720000     -69.93690000
H      -44.96160000     -34.95710000     -73.60710000
H      -47.04470000     -35.72530000     -69.89410000
H      -44.89650000     -35.86340000     -68.71080000
C      -47.46840000     -34.98760000     -72.63060000
H      -48.02290000     -34.43620000     -71.82110000
H      -47.89920000     -35.86640000     -72.96550000
C      -42.40920000     -35.21800000     -72.66580000
H      -41.56240000     -35.60880000     -72.17560000
H      -42.53720000     -35.54700000     -73.70680000
S      -47.46420000     -33.85660000     -74.06200000
S      -41.77240000     -33.53530000     -72.46190000
C      -48.25820000     -32.24050000     -73.49510000
H      -48.39310000     -31.67660000     -74.40610000
H      -49.23040000     -32.60150000     -73.10860000
C      -43.12590000     -32.55540000     -73.12200000
H      -43.96920000     -33.15560000     -73.31490000
H      -42.81570000     -32.20220000     -74.04880000
C      -43.70400000     -31.39350000     -72.22740000
H      -42.88940000     -30.69960000     -71.98800000
H      -44.39430000     -30.84510000     -72.89520000
C      -47.27980000     -31.43700000     -72.61850000
H      -47.72520000     -30.42230000     -72.52760000
H      -46.31810000     -31.36960000     -73.18640000
C      -47.01830000     -31.87020000     -71.19160000
C      -48.02150000     -32.04000000     -70.29740000
C      -45.70520000     -32.01410000     -70.55820000
H      -49.08360000     -31.86630000     -70.55010000
C      -45.83840000     -32.43410000     -69.23340000
C      -44.28860000     -31.88220000     -70.95880000
C      -43.46570000     -32.20050000     -69.93870000
S      -47.48130000     -32.45350000     -68.63760000
S      -44.34130000     -32.81390000     -68.54800000
H      -42.35560000     -32.13100000     -69.96860000
