40
Properties=species:S:1:pos:R:3 #=T CELL(abcABC):=T 1.889726e+02=T 90.00000=T Traj:=T positionsangstrom=T Step:=T 0=T Bead:=T pbc="F F F"
C      -48.09340000     -36.30150000     -72.34560000
C      -48.32360000     -34.89160000     -72.50150000
C      -47.66870000     -34.15390000     -73.51330000
C      -46.57060000     -34.78840000     -74.09410000
C      -46.32210000     -36.17330000     -74.00630000
C      -47.11330000     -36.93300000     -73.07930000
H      -48.71200000     -36.85010000     -71.64770000
H      -47.74110000     -33.10150000     -73.52230000
H      -45.69210000     -36.59500000     -74.74980000
H      -47.03590000     -37.96850000     -72.96040000
C      -45.72670000     -34.08430000     -75.09160000
H      -46.27860000     -33.90390000     -76.04370000
H      -44.88410000     -34.70000000     -75.46830000
C      -49.40510000     -34.32170000     -71.66990000
H      -50.12970000     -33.82670000     -72.27260000
H      -49.88060000     -35.03210000     -70.99150000
S      -45.16790000     -32.40320000     -74.64640000
S      -49.04430000     -32.77250000     -70.56200000
C      -44.07260000     -32.82260000     -73.19770000
H      -44.52740000     -33.50580000     -72.47060000
H      -43.25290000     -33.39830000     -73.58680000
C      -47.38970000     -33.14900000     -69.71970000
H      -47.24310000     -34.30540000     -69.72820000
H      -47.42590000     -32.80190000     -68.62260000
C      -46.17860000     -32.59340000     -70.38590000
H      -46.10450000     -32.97500000     -71.38570000
H      -46.30710000     -31.58200000     -70.51220000
C      -43.64200000     -31.52630000     -72.38040000
H      -44.54150000     -31.01200000     -72.01750000
H      -43.06490000     -30.80400000     -72.97190000
C      -42.92750000     -31.91080000     -71.06980000
C      -41.54540000     -31.87920000     -70.85960000
C      -43.57000000     -32.38640000     -69.91180000
H      -40.81420000     -31.46530000     -71.54420000
C      -42.65350000     -32.77100000     -68.92580000
C      -44.97620000     -32.77700000     -69.52430000
C      -45.05910000     -33.19810000     -68.21830000
S      -41.01270000     -32.57610000     -69.37020000
S      -43.42540000     -33.40360000     -67.49020000
H      -45.88560000     -33.47000000     -67.60160000
