40
Properties=species:S:1:pos:R:3 #=T CELL(abcABC):=T 1.889726e+02=T 90.00000=T Traj:=T positionsangstrom=T Step:=T 0=T Bead:=T pbc="F F F"
C      -44.03640000     -35.96490000     -70.43170000
C      -43.93520000     -35.47490000     -71.78670000
C      -45.01850000     -35.22730000     -72.56700000
C      -46.31050000     -35.23680000     -71.98180000
C      -46.40010000     -35.53200000     -70.59550000
C      -45.31400000     -36.04290000     -69.89000000
H      -43.06620000     -36.05500000     -69.76900000
H      -44.90700000     -34.99360000     -73.61670000
H      -47.37370000     -35.48080000     -70.11680000
H      -45.44400000     -36.31890000     -68.84120000
C      -47.60000000     -34.83880000     -72.59360000
H      -48.07300000     -34.13020000     -71.80710000
H      -48.11810000     -35.74110000     -72.71400000
C      -42.48020000     -35.45350000     -72.28500000
H      -41.84690000     -36.03820000     -71.53440000
H      -42.25730000     -35.76170000     -73.37190000
S      -47.39030000     -33.93810000     -74.21950000
S      -41.71110000     -33.76330000     -72.24110000
C      -47.91170000     -32.24150000     -73.72740000
H      -47.90800000     -31.75900000     -74.70510000
H      -48.81240000     -32.18250000     -73.23750000
C      -43.04850000     -32.75390000     -72.96460000
H      -43.83290000     -33.48160000     -73.05360000
H      -42.76340000     -32.42440000     -73.95790000
C      -43.46150000     -31.55520000     -72.16800000
H      -42.54620000     -30.95670000     -71.85770000
H      -44.07130000     -30.80240000     -72.70830000
C      -46.82170000     -31.37910000     -72.89720000
H      -47.09390000     -30.34090000     -73.20720000
H      -45.79490000     -31.59140000     -73.19750000
C      -46.78380000     -31.69760000     -71.38110000
C      -47.93010000     -31.77260000     -70.56500000
C      -45.52710000     -31.86940000     -70.63640000
H      -48.94800000     -31.68510000     -70.87440000
C      -45.83270000     -32.35830000     -69.32630000
C      -44.13890000     -31.87950000     -70.86210000
C      -43.43770000     -32.29980000     -69.74100000
S      -47.51430000     -32.15850000     -68.83690000
S      -44.44930000     -32.61430000     -68.30400000
H      -42.39740000     -32.33960000     -69.55880000
