40
Properties=species:S:1:pos:R:3 #=T CELL(abcABC):=T 1.889726e+02=T 90.00000=T Traj:=T positionsangstrom=T Step:=T 0=T Bead:=T pbc="F F F"
C      -43.21800000     -33.92820000     -70.10110000
C      -43.96180000     -35.11020000     -70.22340000
C      -45.21760000     -35.08590000     -69.62670000
C      -45.70720000     -33.96320000     -68.96050000
C      -44.92560000     -32.84640000     -68.76710000
C      -43.69700000     -32.79930000     -69.45520000
H      -42.21190000     -33.83720000     -70.31910000
H      -45.81070000     -35.97900000     -69.61390000
H      -45.27570000     -31.91870000     -68.29340000
H      -43.01910000     -31.98070000     -69.36700000
C      -47.05710000     -33.92860000     -68.39310000
H      -47.10150000     -33.12310000     -67.64340000
H      -47.27870000     -34.82980000     -67.81870000
C      -43.38270000     -36.27240000     -70.92860000
H      -42.27900000     -36.29210000     -70.80940000
H      -43.87490000     -37.17290000     -70.59400000
S      -48.51490000     -33.53420000     -69.52640000
S      -43.36720000     -36.27510000     -72.76820000
C      -48.25100000     -34.15140000     -71.20660000
H      -47.34030000     -34.81670000     -71.24890000
H      -49.07530000     -34.73960000     -71.54270000
C      -45.18340000     -35.89950000     -73.07880000
H      -45.60350000     -35.81910000     -72.08070000
H      -45.59660000     -36.87460000     -73.44520000
C      -45.43010000     -34.64690000     -73.94750000
H      -45.01050000     -34.64640000     -74.94790000
H      -46.50880000     -34.69720000     -74.13530000
C      -48.15860000     -33.02200000     -72.20140000
H      -49.03560000     -32.42850000     -72.12840000
H      -48.20470000     -33.43810000     -73.18060000
C      -46.93740000     -32.11840000     -72.05570000
C      -46.96620000     -31.06630000     -71.14930000
C      -45.62810000     -32.33990000     -72.62020000
H      -47.85900000     -30.63610000     -70.69920000
C      -44.77110000     -31.31080000     -72.18380000
C      -44.93450000     -33.36280000     -73.33600000
C      -43.54760000     -33.12540000     -73.30350000
S      -45.46730000     -30.11890000     -71.12360000
S      -43.07220000     -31.55570000     -72.51830000
H      -42.88590000     -33.68560000     -73.91330000
