40
Properties=species:S:1:pos:R:3 #=T CELL(abcABC):=T 1.889726e+02=T 90.00000=T Traj:=T positionsangstrom=T Step:=T 0=T Bead:=T pbc="F F F"
C      -43.19910000     -34.31320000     -69.94500000
C      -43.91650000     -35.48870000     -70.04090000
C      -45.17420000     -35.66850000     -69.42590000
C      -45.80390000     -34.48380000     -68.96290000
C      -45.02080000     -33.32370000     -68.78650000
C      -43.74460000     -33.20320000     -69.33120000
H      -42.33870000     -34.21130000     -70.62680000
H      -45.79930000     -36.60460000     -69.52330000
H      -45.55990000     -32.34570000     -68.62340000
H      -43.27220000     -32.23660000     -69.36470000
C      -47.23880000     -34.52000000     -68.52080000
H      -47.43520000     -34.33310000     -67.47900000
H      -47.70160000     -35.51540000     -68.63200000
C      -43.40210000     -36.60850000     -70.92750000
H      -42.45460000     -37.09910000     -70.70220000
H      -44.12050000     -37.39910000     -70.96810000
S      -48.22290000     -33.35340000     -69.56970000
S      -43.47950000     -36.07810000     -72.73030000
C      -48.01720000     -34.08270000     -71.23910000
H      -47.09710000     -34.57620000     -71.16000000
H      -48.71120000     -34.85210000     -71.52250000
C      -45.19410000     -35.60310000     -72.84660000
H      -45.54840000     -35.40700000     -71.83140000
H      -45.84270000     -36.37940000     -73.24340000
C      -45.44900000     -34.45410000     -73.93620000
H      -45.07350000     -34.71980000     -74.88660000
H      -46.49150000     -34.24040000     -74.01670000
C      -48.05130000     -32.99010000     -72.32720000
H      -48.99330000     -32.58610000     -72.14130000
H      -48.11980000     -33.49290000     -73.29970000
C      -46.94090000     -31.97500000     -72.17700000
C      -47.17230000     -30.75440000     -71.55190000
C      -45.51890000     -32.20490000     -72.54180000
H      -48.04860000     -30.44010000     -71.04650000
C      -44.75590000     -31.16520000     -72.04360000
C      -44.81900000     -33.17030000     -73.40420000
C      -43.44930000     -32.83180000     -73.46680000
S      -45.62120000     -29.92590000     -71.12330000
S      -43.09370000     -31.34190000     -72.49070000
H      -42.77610000     -33.22690000     -74.18240000
