40
Properties=species:S:1:pos:R:3 #=T CELL(abcABC):=T 1.889726e+02=T 90.00000=T Traj:=T positionsangstrom=T Step:=T 0=T Bead:=T pbc="F F F"
C      -44.41160000     -35.83780000     -70.29790000
C      -44.16760000     -35.54590000     -71.69730000
C      -45.26970000     -35.29860000     -72.49150000
C      -46.58330000     -35.22460000     -71.94520000
C      -46.78250000     -35.32750000     -70.56950000
C      -45.64970000     -35.63770000     -69.77230000
H      -43.49110000     -35.96070000     -69.64040000
H      -45.09650000     -35.14860000     -73.63660000
H      -47.73250000     -35.16030000     -70.13680000
H      -45.84020000     -35.92320000     -68.75040000
C      -47.69340000     -34.80990000     -72.87960000
H      -48.34240000     -34.22230000     -72.27540000
H      -48.33870000     -35.63350000     -73.33870000
C      -42.78820000     -35.63970000     -72.28050000
H      -42.18940000     -36.40610000     -71.71290000
H      -42.73450000     -35.75630000     -73.36900000
S      -47.30400000     -33.79000000     -74.38820000
S      -41.79650000     -34.04460000     -71.95740000
C      -47.49860000     -32.06150000     -73.88550000
H      -47.41570000     -31.39410000     -74.77200000
H      -48.42880000     -31.97980000     -73.26090000
C      -42.87840000     -32.85700000     -72.82890000
H      -43.79700000     -33.24750000     -73.07070000
H      -42.38630000     -32.59890000     -73.70750000
C      -43.14990000     -31.62800000     -71.96760000
H      -42.27790000     -31.16940000     -71.57850000
H      -43.65590000     -30.84400000     -72.57570000
C      -46.39390000     -31.48620000     -72.99340000
H      -46.36790000     -30.39280000     -73.15580000
H      -45.39800000     -31.88020000     -73.44130000
C      -46.45650000     -31.83980000     -71.54070000
C      -47.61920000     -32.05360000     -70.88910000
C      -45.38000000     -32.04060000     -70.62880000
H      -48.60850000     -32.05050000     -71.36180000
C      -45.81280000     -32.24680000     -69.32330000
C      -43.95190000     -31.91730000     -70.74340000
C      -43.37150000     -31.93540000     -69.47360000
S      -47.50350000     -32.35640000     -69.13070000
S      -44.53690000     -32.36710000     -68.16680000
H      -42.28870000     -31.91120000     -69.31280000
