40
Properties=species:S:1:pos:R:3 #=T CELL(abcABC):=T 1.889726e+02=T 90.00000=T Traj:=T positionsangstrom=T Step:=T 0=T Bead:=T pbc="F F F"
C      -43.06630000     -34.07950000     -69.97870000
C      -43.89820000     -35.16150000     -70.22580000
C      -45.17790000     -35.17750000     -69.68800000
C      -45.66700000     -33.99170000     -69.09710000
C      -44.76420000     -32.87990000     -68.94520000
C      -43.47660000     -32.89710000     -69.42400000
H      -42.13270000     -33.98250000     -70.45470000
H      -45.81030000     -36.05590000     -69.82630000
H      -45.11260000     -31.91080000     -68.45910000
H      -42.72680000     -32.15460000     -69.22080000
C      -47.08340000     -34.06240000     -68.45710000
H      -47.26340000     -33.40370000     -67.57400000
H      -47.28470000     -35.13190000     -68.23460000
C      -43.39830000     -36.45080000     -70.92210000
H      -42.35980000     -36.62430000     -70.75300000
H      -43.90750000     -37.34300000     -70.52390000
S      -48.47760000     -33.61410000     -69.57910000
S      -43.57150000     -36.27250000     -72.74610000
C      -48.01960000     -34.13600000     -71.27300000
H      -46.91190000     -34.39530000     -71.25390000
H      -48.73900000     -34.90530000     -71.56740000
C      -45.37040000     -35.80270000     -73.09620000
H      -45.94520000     -35.67100000     -72.15510000
H      -45.83240000     -36.53570000     -73.68980000
C      -45.45360000     -34.42920000     -73.95990000
H      -44.94730000     -34.62030000     -74.96210000
H      -46.49370000     -34.27670000     -74.30820000
C      -48.15780000     -32.96940000     -72.34570000
H      -49.06220000     -32.34280000     -72.27850000
H      -48.21750000     -33.55910000     -73.30360000
C      -46.95120000     -32.04140000     -72.14410000
C      -47.13440000     -30.84690000     -71.52590000
C      -45.57650000     -32.32260000     -72.37370000
H      -48.01700000     -30.43700000     -71.13770000
C      -44.67430000     -31.35000000     -71.80880000
C      -44.86200000     -33.25200000     -73.24920000
C      -43.50520000     -32.98010000     -73.36290000
S      -45.63260000     -30.09950000     -71.00020000
S      -43.03220000     -31.55840000     -72.42560000
H      -42.70540000     -33.38230000     -73.94070000
