40
Properties=species:S:1:pos:R:3 #=T CELL(abcABC):=T 1.889726e+02=T 90.00000=T Traj:=T positionsangstrom=T Step:=T 0=T Bead:=T pbc="F F F"
C      -43.13420000     -33.94440000     -69.78470000
C      -43.88870000     -35.13720000     -69.81370000
C      -45.13660000     -35.27250000     -69.23640000
C      -45.66550000     -34.12770000     -68.53970000
C      -44.87540000     -32.95410000     -68.46740000
C      -43.62750000     -32.85980000     -69.11540000
H      -42.22070000     -33.92870000     -70.46970000
H      -45.71250000     -36.18970000     -69.33530000
H      -45.35700000     -32.25630000     -67.81280000
H      -43.08990000     -31.89610000     -69.22180000
C      -47.00680000     -34.32660000     -67.85410000
H      -47.24130000     -33.63150000     -67.05350000
H      -47.14280000     -35.40540000     -67.68770000
C      -43.33660000     -36.32410000     -70.68850000
H      -42.36990000     -36.57050000     -70.33900000
H      -43.83000000     -37.33350000     -70.49960000
S      -48.44120000     -33.93330000     -69.17040000
S      -43.27240000     -36.12690000     -72.56360000
C      -47.81280000     -34.34010000     -70.82930000
H      -46.73230000     -34.58640000     -70.70440000
H      -48.26280000     -35.30450000     -71.18550000
C      -44.98190000     -35.82300000     -72.83320000
H      -45.55360000     -35.63480000     -71.88440000
H      -45.34660000     -36.77140000     -73.28690000
C      -45.36280000     -34.66840000     -73.85700000
H      -44.96440000     -34.94780000     -74.89530000
H      -46.42840000     -34.64470000     -73.88550000
C      -48.06070000     -33.25380000     -71.85560000
H      -48.89520000     -32.66100000     -71.57090000
H      -48.32800000     -33.71200000     -72.86670000
C      -46.91890000     -32.21700000     -72.06940000
C      -47.07800000     -31.04600000     -71.39240000
C      -45.62470000     -32.31800000     -72.77620000
H      -47.99590000     -30.80970000     -70.89790000
C      -44.92810000     -31.12200000     -72.68910000
C      -44.87170000     -33.25690000     -73.53530000
C      -43.64140000     -32.76120000     -73.99950000
S      -45.72060000     -30.01060000     -71.58060000
S      -43.41980000     -31.03990000     -73.55730000
H      -42.92770000     -33.26070000     -74.65870000
