40
Properties=species:S:1:pos:R:3 #=T CELL(abcABC):=T 1.889726e+02=T 90.00000=T Traj:=T positionsangstrom=T Step:=T 0=T Bead:=T pbc="F F F"
C      -45.70110000     -35.29280000     -69.56000000
C      -44.80910000     -35.51140000     -70.63240000
C      -45.33280000     -35.82110000     -71.93520000
C      -46.69830000     -35.65080000     -72.22420000
C      -47.58470000     -35.37050000     -71.17820000
C      -47.08580000     -35.26390000     -69.88510000
H      -45.27290000     -35.17090000     -68.59510000
H      -44.60900000     -36.28840000     -72.65380000
H      -48.65360000     -35.18300000     -71.47410000
H      -47.77850000     -35.04240000     -69.02530000
C      -47.28860000     -35.92490000     -73.58840000
H      -48.30370000     -36.11670000     -73.51870000
H      -46.80760000     -36.85680000     -73.97980000
C      -43.29640000     -35.92290000     -70.47230000
H      -43.05120000     -36.13610000     -69.45300000
H      -43.19620000     -36.81440000     -71.11390000
S      -46.96130000     -34.56720000     -74.78150000
S      -42.06790000     -34.67330000     -70.93900000
C      -47.35530000     -32.99710000     -73.81900000
H      -47.86440000     -32.28250000     -74.42530000
H      -48.06120000     -33.18240000     -73.00070000
C      -42.78020000     -33.81090000     -72.47040000
H      -43.89990000     -34.07640000     -72.65510000
H      -42.16280000     -34.03340000     -73.30970000
C      -42.82210000     -32.27880000     -72.18840000
H      -41.87580000     -31.76880000     -72.09480000
H      -43.27890000     -31.89550000     -73.08370000
C      -46.07750000     -32.32400000     -73.28320000
H      -45.87510000     -31.36180000     -73.93170000
H      -45.18330000     -32.91770000     -73.50710000
C      -46.16910000     -31.82310000     -71.88200000
C      -47.36650000     -31.39640000     -71.35160000
C      -45.08790000     -31.80350000     -70.88950000
H      -48.34530000     -31.33350000     -71.69860000
C      -45.47680000     -31.19800000     -69.69550000
C      -43.62470000     -31.94500000     -70.92040000
C      -42.99900000     -31.75190000     -69.70870000
S      -47.20370000     -30.76080000     -69.72780000
S      -44.21700000     -31.21740000     -68.45510000
H      -41.92800000     -31.66510000     -69.53730000
