40
Properties=species:S:1:pos:R:3 #=T CELL(abcABC):=T 1.889726e+02=T 90.00000=T Traj:=T positionsangstrom=T Step:=T 0=T Bead:=T pbc="F F F"
C      -43.17220000     -34.03780000     -69.63740000
C      -43.79980000     -35.29880000     -69.82940000
C      -45.07250000     -35.44090000     -69.29030000
C      -45.79260000     -34.33330000     -68.83100000
C      -45.16280000     -33.05870000     -68.81800000
C      -43.80470000     -32.90650000     -69.12270000
H      -42.10920000     -33.85610000     -69.96870000
H      -45.59560000     -36.41150000     -69.38010000
H      -45.81760000     -32.16540000     -68.55590000
H      -43.29550000     -31.95260000     -69.27090000
C      -47.22130000     -34.37070000     -68.23850000
H      -47.08370000     -33.87100000     -67.26890000
H      -47.39230000     -35.44970000     -68.11840000
C      -43.14650000     -36.36260000     -70.66260000
H      -42.12530000     -36.52360000     -70.43870000
H      -43.65600000     -37.40700000     -70.52960000
S      -48.39640000     -33.51870000     -69.21430000
S      -43.31810000     -35.99570000     -72.55600000
C      -47.95700000     -34.21340000     -70.90050000
H      -46.89580000     -34.52580000     -70.90000000
H      -48.64930000     -35.10600000     -71.12640000
C      -45.15470000     -35.70530000     -72.79180000
H      -45.62500000     -35.57360000     -71.76650000
H      -45.57930000     -36.52860000     -73.35410000
C      -45.43960000     -34.64120000     -73.79280000
H      -44.96440000     -34.99030000     -74.74530000
H      -46.50220000     -34.65290000     -73.86590000
C      -48.09750000     -33.20640000     -72.06570000
H      -48.98080000     -32.63710000     -72.17590000
H      -48.07730000     -33.70060000     -73.06200000
C      -46.81780000     -32.30540000     -71.98010000
C      -47.00150000     -31.09650000     -71.36280000
C      -45.50680000     -32.40880000     -72.61040000
H      -47.96570000     -30.91540000     -70.96150000
C      -44.73500000     -31.26230000     -72.42380000
C      -44.85480000     -33.34480000     -73.50820000
C      -43.70100000     -32.80050000     -74.01600000
S      -45.60110000     -29.96790000     -71.49720000
S      -43.32710000     -31.23700000     -73.33940000
H      -43.01570000     -33.32210000     -74.70480000
