40
Properties=species:S:1:pos:R:3 #=T CELL(abcABC):=T 1.889726e+02=T 90.00000=T Traj:=T positionsangstrom=T Step:=T 0=T Bead:=T pbc="F F F"
C      -45.26090000     -35.16320000     -69.67920000
C      -44.67380000     -35.77910000     -70.81390000
C      -45.36440000     -35.94630000     -72.05350000
C      -46.63640000     -35.42960000     -72.14830000
C      -47.16710000     -34.67690000     -71.03450000
C      -46.55210000     -34.64850000     -69.81220000
H      -44.68140000     -35.18660000     -68.73620000
H      -44.91290000     -36.62220000     -72.78580000
H      -48.15430000     -34.33880000     -71.17960000
H      -47.03640000     -34.20500000     -68.92810000
C      -47.41270000     -35.54640000     -73.43490000
H      -48.43770000     -35.30040000     -73.28600000
H      -47.35260000     -36.65420000     -73.94400000
C      -43.22820000     -36.18120000     -70.75140000
H      -42.94750000     -36.25570000     -69.67370000
H      -42.97710000     -37.12980000     -71.22730000
S      -46.87630000     -34.30440000     -74.70620000
S      -41.99020000     -34.86920000     -71.39770000
C      -47.32580000     -32.65940000     -73.98250000
H      -47.58340000     -32.17220000     -74.92960000
H      -48.25570000     -32.78440000     -73.41270000
C      -42.88970000     -33.88850000     -72.66900000
H      -43.87010000     -34.36120000     -72.85500000
H      -42.31710000     -33.86040000     -73.59870000
C      -42.96120000     -32.40020000     -72.14710000
H      -41.97450000     -32.06570000     -71.82170000
H      -43.32610000     -31.76700000     -72.92870000
C      -46.20210000     -31.97610000     -73.27210000
H      -45.92660000     -31.03980000     -73.78530000
H      -45.28960000     -32.44510000     -73.50950000
C      -46.34960000     -31.68120000     -71.79600000
C      -47.52810000     -31.37780000     -71.14860000
C      -45.22670000     -31.67850000     -70.84540000
H      -48.54530000     -31.53100000     -71.36810000
C      -45.56940000     -31.30730000     -69.50620000
C      -43.86120000     -32.11430000     -70.91940000
C      -43.26420000     -32.11710000     -69.66150000
S      -47.34710000     -31.14770000     -69.37710000
S      -44.27810000     -31.53400000     -68.41540000
H      -42.21030000     -32.21670000     -69.41480000
