40
Properties=species:S:1:pos:R:3 #=T CELL(abcABC):=T 1.889726e+02=T 90.00000=T Traj:=T positionsangstrom=T Step:=T 0=T Bead:=T pbc="F F F"
C      -45.50470000     -35.40090000     -69.69640000
C      -44.82870000     -35.77560000     -70.88860000
C      -45.56160000     -35.89360000     -72.12100000
C      -46.90570000     -35.63620000     -72.09740000
C      -47.48580000     -35.05180000     -70.97850000
C      -46.84680000     -35.00600000     -69.74870000
H      -44.86690000     -35.24550000     -68.82920000
H      -44.98780000     -36.09250000     -73.10120000
H      -48.44250000     -34.52810000     -71.01030000
H      -47.32410000     -34.60040000     -68.85360000
C      -47.57900000     -35.74390000     -73.44850000
H      -48.54190000     -35.31490000     -73.38640000
H      -47.62260000     -36.78180000     -73.77900000
C      -43.36200000     -36.19400000     -70.84940000
H      -43.11310000     -36.89010000     -70.09520000
H      -42.99170000     -36.68660000     -71.79050000
S      -46.74320000     -34.90690000     -74.84670000
S      -42.24080000     -34.77030000     -70.39200000
C      -46.81960000     -33.13530000     -74.15750000
H      -46.61340000     -32.63470000     -75.12460000
H      -47.87030000     -33.02210000     -73.79830000
C      -42.56290000     -33.67490000     -71.93000000
H      -43.54500000     -33.99040000     -72.37000000
H      -41.88970000     -33.90340000     -72.72580000
C      -42.57500000     -32.19790000     -71.76870000
H      -41.65900000     -31.94090000     -71.29530000
H      -42.58520000     -31.77060000     -72.81320000
C      -45.69960000     -32.91970000     -73.14030000
H      -44.85760000     -32.49670000     -73.68600000
H      -45.39590000     -33.89450000     -72.80620000
C      -46.03070000     -32.09120000     -71.91010000
C      -47.34120000     -31.85570000     -71.50040000
C      -45.03650000     -31.63730000     -71.00060000
H      -48.36170000     -32.22910000     -71.88810000
C      -45.67470000     -31.18920000     -69.82320000
C      -43.58900000     -31.51420000     -70.95410000
C      -43.20570000     -30.90250000     -69.78330000
S      -47.37570000     -31.13940000     -69.88440000
S      -44.54700000     -30.48600000     -68.74540000
H      -42.22880000     -30.62240000     -69.47710000
