40
Properties=species:S:1:pos:R:3 #=T CELL(abcABC):=T 1.889726e+02=T 90.00000=T Traj:=T positionsangstrom=T Step:=T 0=T Bead:=T pbc="F F F"
C      -45.24860000     -35.27540000     -69.85660000
C      -44.66510000     -35.97390000     -70.95880000
C      -45.43140000     -36.24420000     -72.11500000
C      -46.76160000     -35.75990000     -72.17900000
C      -47.33880000     -35.06780000     -71.09530000
C      -46.59340000     -34.83840000     -69.94010000
H      -44.73030000     -35.09130000     -68.92220000
H      -44.97910000     -36.81450000     -72.94300000
H      -48.42290000     -34.88680000     -71.02820000
H      -47.04630000     -34.23970000     -69.14130000
C      -47.59570000     -35.81910000     -73.44790000
H      -48.61760000     -35.48730000     -73.14580000
H      -47.70960000     -36.87650000     -73.81130000
C      -43.24220000     -36.23400000     -70.80180000
H      -43.04430000     -36.89250000     -69.92710000
H      -42.81380000     -36.69120000     -71.71570000
S      -46.98820000     -34.74920000     -74.91590000
S      -42.38690000     -34.72110000     -70.36810000
C      -46.95640000     -33.04580000     -74.15610000
H      -47.05200000     -32.38930000     -75.01430000
H      -47.89090000     -32.89370000     -73.63240000
C      -42.46060000     -33.82210000     -71.99110000
H      -43.34930000     -34.30910000     -72.43890000
H      -41.49600000     -33.91000000     -72.53830000
C      -42.70800000     -32.33780000     -71.78380000
H      -41.69710000     -31.90580000     -71.60290000
H      -43.00440000     -31.87990000     -72.73590000
C      -45.75080000     -32.67020000     -73.24720000
H      -45.04270000     -31.94440000     -73.71830000
H      -45.11720000     -33.54890000     -73.20470000
C      -46.06200000     -32.17910000     -71.79470000
C      -47.34820000     -31.92710000     -71.39290000
C      -45.08960000     -31.72000000     -70.82670000
H      -48.39640000     -32.23190000     -71.81030000
C      -45.67890000     -31.03440000     -69.77250000
C      -43.65850000     -31.81710000     -70.75240000
C      -43.15960000     -31.12420000     -69.66690000
S      -47.42050000     -31.07400000     -69.88350000
S      -44.44450000     -30.34630000     -68.71020000
H      -42.12300000     -30.99960000     -69.41930000
