40
Properties=species:S:1:pos:R:3 #=T CELL(abcABC):=T 1.889726e+02=T 90.00000=T Traj:=T positionsangstrom=T Step:=T 0=T Bead:=T pbc="F F F"
C      -45.81940000     -35.42580000     -69.35810000
C      -44.92910000     -35.69970000     -70.44030000
C      -45.47430000     -35.87160000     -71.72010000
C      -46.82600000     -35.55770000     -72.01310000
C      -47.66100000     -35.23610000     -70.92170000
C      -47.17760000     -35.15800000     -69.65930000
H      -45.44950000     -35.32870000     -68.31560000
H      -44.75370000     -36.00070000     -72.45660000
H      -48.71130000     -35.22720000     -71.06640000
H      -47.80270000     -35.03850000     -68.80070000
C      -47.39340000     -35.61500000     -73.40040000
H      -48.37850000     -35.21050000     -73.42340000
H      -47.48670000     -36.63050000     -73.68340000
C      -43.48460000     -35.94820000     -70.17550000
H      -43.23820000     -36.20630000     -69.08520000
H      -43.12280000     -36.77540000     -70.84710000
S      -46.44870000     -34.81460000     -74.67930000
S      -42.26990000     -34.60250000     -70.44600000
C      -46.80750000     -33.00400000     -74.45460000
H      -46.98150000     -32.54400000     -75.46090000
H      -47.76700000     -32.94460000     -73.88200000
C      -42.59000000     -33.82670000     -72.05600000
H      -43.56870000     -34.19290000     -72.32980000
H      -41.85500000     -34.15950000     -72.82610000
C      -42.57550000     -32.28600000     -71.94860000
H      -41.56730000     -32.05920000     -71.60530000
H      -42.53130000     -31.70420000     -72.88560000
C      -45.69340000     -32.37110000     -73.65850000
H      -45.32010000     -31.48590000     -74.17620000
H      -44.77980000     -32.94540000     -73.55800000
C      -46.04620000     -31.99790000     -72.21300000
C      -47.26180000     -31.60650000     -71.79600000
C      -45.02250000     -31.64830000     -71.15230000
H      -48.09820000     -31.68460000     -72.44100000
C      -45.64820000     -31.22680000     -69.99950000
C      -43.60550000     -31.75530000     -70.97570000
C      -43.19020000     -31.31260000     -69.76650000
S      -47.41780000     -31.10270000     -70.10100000
S      -44.52480000     -30.91730000     -68.69660000
H      -42.17730000     -31.47190000     -69.29660000
