40
Properties=species:S:1:pos:R:3 #=T CELL(abcABC):=T 1.889726e+02=T 90.00000=T Traj:=T positionsangstrom=T Step:=T 0=T Bead:=T pbc="F F F"
C      -45.44640000     -35.38890000     -69.76050000
C      -44.72160000     -35.88580000     -70.88980000
C      -45.34600000     -36.09870000     -72.10440000
C      -46.70390000     -35.73720000     -72.22170000
C      -47.41990000     -35.16460000     -71.16180000
C      -46.75000000     -34.91120000     -69.94740000
H      -44.90990000     -35.41960000     -68.78870000
H      -44.94810000     -36.64130000     -72.87800000
H      -48.40950000     -34.74360000     -71.27100000
H      -47.17300000     -34.40710000     -69.09030000
C      -47.43240000     -36.01790000     -73.57640000
H      -48.51400000     -36.08370000     -73.55120000
H      -47.12470000     -36.88730000     -74.05540000
C      -43.23870000     -36.26380000     -70.76940000
H      -43.13850000     -37.01760000     -69.99830000
H      -42.94100000     -36.71120000     -71.68620000
S      -46.92600000     -34.60620000     -74.85820000
S      -42.18000000     -34.74670000     -70.47250000
C      -47.16820000     -32.98180000     -74.00890000
H      -47.35170000     -32.21770000     -74.78660000
H      -48.07920000     -32.96980000     -73.38960000
C      -42.68920000     -33.86110000     -71.95410000
H      -43.67770000     -34.15360000     -72.17900000
H      -42.12650000     -34.25670000     -72.84610000
C      -42.65260000     -32.31720000     -71.88590000
H      -41.66720000     -32.03590000     -71.57250000
H      -42.77130000     -31.87360000     -72.86100000
C      -45.90950000     -32.62820000     -73.23350000
H      -45.29560000     -31.91150000     -73.81900000
H      -45.32600000     -33.57910000     -73.01890000
C      -46.19420000     -32.00650000     -71.88080000
C      -47.43760000     -31.68750000     -71.41070000
C      -45.11560000     -31.69920000     -70.90380000
H      -48.27320000     -31.81130000     -72.11340000
C      -45.60480000     -31.13540000     -69.75190000
C      -43.63880000     -31.76510000     -70.88820000
C      -43.18680000     -31.07090000     -69.77790000
S      -47.37120000     -30.97980000     -69.79010000
S      -44.38130000     -30.62980000     -68.60840000
H      -42.14300000     -31.19630000     -69.42110000
