40
Properties=species:S:1:pos:R:3 #=T CELL(abcABC):=T 1.889726e+02=T 90.00000=T Traj:=T positionsangstrom=T Step:=T 0=T Bead:=T pbc="F F F"
C      -45.28100000     -35.25330000     -69.03690000
C      -44.40960000     -35.50820000     -70.12740000
C      -44.93790000     -35.63540000     -71.42050000
C      -46.30020000     -35.30910000     -71.65150000
C      -47.14470000     -35.05820000     -70.57410000
C      -46.64550000     -35.05360000     -69.24850000
H      -44.82700000     -34.97830000     -68.10290000
H      -44.27770000     -35.80000000     -72.25130000
H      -48.16660000     -34.80410000     -70.74730000
H      -47.42820000     -34.84790000     -68.40220000
C      -47.00240000     -35.39680000     -72.93630000
H      -47.68590000     -34.57390000     -73.22690000
H      -47.59280000     -36.30690000     -73.00370000
C      -42.95350000     -35.68000000     -69.97040000
H      -42.81150000     -36.23360000     -69.02930000
H      -42.51780000     -36.17380000     -70.78680000
S      -46.00470000     -35.48120000     -74.47870000
S      -42.07600000     -34.06560000     -69.78500000
C      -45.93350000     -33.64430000     -74.83680000
H      -45.27590000     -33.56450000     -75.72030000
H      -47.00060000     -33.31540000     -75.06940000
C      -42.36190000     -33.40790000     -71.55410000
H      -43.11910000     -34.05210000     -72.03680000
H      -41.51530000     -33.44970000     -72.13310000
C      -42.84000000     -31.92940000     -71.58250000
H      -42.11750000     -31.28190000     -71.04940000
H      -42.78040000     -31.62250000     -72.69330000
C      -45.20970000     -32.79090000     -73.84350000
H      -44.77490000     -32.06660000     -74.48280000
H      -44.32390000     -33.31940000     -73.53950000
C      -45.96780000     -32.06400000     -72.71020000
C      -47.36740000     -31.88490000     -72.77500000
C      -45.42720000     -31.69650000     -71.47690000
H      -48.02660000     -32.13590000     -73.55490000
C      -46.41710000     -31.34280000     -70.49780000
C      -44.12510000     -31.58340000     -70.85180000
C      -44.16810000     -31.23330000     -69.59850000
S      -48.01230000     -31.44450000     -71.17360000
S      -45.77440000     -30.91260000     -68.90780000
H      -43.31600000     -31.04460000     -68.99250000
