40
Properties=species:S:1:pos:R:3 #=T CELL(abcABC):=T 1.889726e+02=T 90.00000=T Traj:=T positionsangstrom=T Step:=T 0=T Bead:=T pbc="F F F"
C      -45.26990000     -34.96260000     -69.19910000
C      -44.54260000     -35.43870000     -70.31980000
C      -45.10040000     -35.46940000     -71.57910000
C      -46.47950000     -35.20340000     -71.68650000
C      -47.18400000     -34.67100000     -70.60990000
C      -46.57090000     -34.50300000     -69.39050000
H      -44.72590000     -35.03260000     -68.30270000
H      -44.55740000     -35.94590000     -72.38140000
H      -48.14580000     -34.26340000     -70.89190000
H      -46.92740000     -33.89350000     -68.58050000
C      -47.31990000     -35.29110000     -72.94610000
H      -48.10050000     -34.57140000     -72.99700000
H      -47.91690000     -36.35130000     -73.01140000
C      -43.11180000     -35.89660000     -70.22090000
H      -42.89240000     -36.51960000     -69.29400000
H      -42.94850000     -36.46550000     -71.16820000
S      -46.22560000     -35.30160000     -74.45130000
S      -41.97170000     -34.44630000     -70.12030000
C      -46.00050000     -33.40920000     -74.86950000
H      -45.41820000     -33.42090000     -75.71480000
H      -46.89380000     -32.81320000     -75.09730000
C      -42.40200000     -33.60030000     -71.75480000
H      -43.18890000     -34.21890000     -72.18160000
H      -41.53870000     -33.59870000     -72.41430000
C      -42.76470000     -32.15320000     -71.55920000
H      -41.92100000     -31.55240000     -71.05010000
H      -42.92190000     -31.65530000     -72.53830000
C      -45.20140000     -32.59970000     -73.80370000
H      -44.52440000     -31.80620000     -74.17370000
H      -44.43620000     -33.17860000     -73.35760000
C      -45.95170000     -32.08320000     -72.56560000
C      -47.37060000     -31.87770000     -72.56110000
C      -45.34060000     -31.84490000     -71.25390000
H      -47.99440000     -31.79010000     -73.48930000
C      -46.29530000     -31.48970000     -70.28070000
C      -43.98090000     -31.82340000     -70.70790000
C      -43.97180000     -31.48350000     -69.42750000
S      -47.91110000     -31.30830000     -70.99160000
S      -45.60540000     -31.13390000     -68.74820000
H      -43.02590000     -31.38960000     -68.74020000
