40
Properties=species:S:1:pos:R:3 #=T CELL(abcABC):=T 1.889726e+02=T 90.00000=T Traj:=T positionsangstrom=T Step:=T 0=T Bead:=T pbc="F F F"
C      -43.04090000     -33.19640000     -69.71640000
C      -43.04150000     -34.44810000     -70.27540000
C      -44.14870000     -35.34000000     -70.06900000
C      -45.23370000     -34.83190000     -69.28300000
C      -45.38100000     -33.43080000     -69.05510000
C      -44.23580000     -32.67230000     -69.14900000
H      -42.23530000     -32.43090000     -69.74150000
H      -44.01750000     -36.47500000     -70.11010000
H      -46.28630000     -33.05120000     -68.58970000
H      -44.14340000     -31.63250000     -68.84010000
C      -46.36540000     -35.79350000     -68.93500000
H      -46.65100000     -35.55510000     -67.90340000
H      -46.11020000     -36.85020000     -69.14230000
C      -41.82540000     -34.82790000     -71.16410000
H      -40.93680000     -34.30890000     -70.86690000
H      -41.72920000     -35.87610000     -71.29020000
S      -47.85920000     -35.45190000     -69.92840000
S      -42.17320000     -34.11960000     -72.86030000
C      -47.26050000     -35.61930000     -71.73190000
H      -46.16490000     -35.58700000     -71.63030000
H      -47.51190000     -36.58050000     -72.13270000
C      -43.73680000     -34.79560000     -73.43840000
H      -44.24500000     -35.40930000     -72.63880000
H      -43.49280000     -35.48800000     -74.20650000
C      -44.74620000     -33.75240000     -74.00250000
H      -44.28780000     -33.40970000     -74.98040000
H      -45.60540000     -34.31090000     -74.25940000
C      -47.79220000     -34.46590000     -72.62010000
H      -48.86850000     -34.57780000     -72.82940000
H      -47.20100000     -34.70530000     -73.48960000
C      -47.38470000     -33.02630000     -72.11520000
C      -48.21100000     -32.37240000     -71.22080000
C      -46.18860000     -32.34100000     -72.33330000
H      -49.20270000     -32.61800000     -70.91100000
C      -46.04610000     -31.14120000     -71.63390000
C      -44.96790000     -32.64830000     -73.08720000
C      -44.08250000     -31.65650000     -72.96110000
S      -47.52160000     -30.86380000     -70.66120000
S      -44.48240000     -30.41730000     -71.85400000
H      -43.06640000     -31.65700000     -73.41540000
