40
Properties=species:S:1:pos:R:3 #=T CELL(abcABC):=T 1.889726e+02=T 90.00000=T Traj:=T positionsangstrom=T Step:=T 0=T Bead:=T pbc="F F F"
C      -47.42140000     -32.99730000     -68.30020000
C      -47.87010000     -32.05390000     -69.23130000
C      -48.42360000     -32.55070000     -70.40850000
C      -48.56450000     -33.85320000     -70.67270000
C      -47.97300000     -34.75390000     -69.76110000
C      -47.44310000     -34.33190000     -68.57250000
H      -46.86740000     -32.65650000     -67.37100000
H      -48.75360000     -31.90280000     -71.19770000
H      -47.92980000     -35.85320000     -69.84580000
H      -47.16680000     -35.04990000     -67.77590000
C      -49.12350000     -34.28420000     -72.00530000
H      -50.12340000     -33.79210000     -72.12880000
H      -49.21810000     -35.36230000     -72.00700000
C      -47.65350000     -30.55110000     -69.05210000
H      -48.48030000     -29.92190000     -69.41530000
H      -47.40200000     -30.13910000     -68.04220000
S      -48.00550000     -33.76370000     -73.38390000
S      -46.24520000     -30.06060000     -70.29130000
C      -46.38920000     -34.26070000     -72.92600000
H      -46.17900000     -34.14600000     -71.81930000
H      -46.23100000     -35.24900000     -73.28580000
C      -45.12490000     -31.53190000     -70.02170000
H      -45.70980000     -32.48370000     -70.00450000
H      -44.86230000     -31.38790000     -68.87820000
C      -43.87500000     -31.41330000     -70.96820000
H      -44.10160000     -30.94150000     -71.88770000
H      -43.19020000     -30.75330000     -70.44800000
C      -45.25320000     -33.38920000     -73.61440000
H      -45.20690000     -32.45430000     -73.10450000
H      -45.43090000     -33.29050000     -74.71490000
C      -43.94970000     -34.05350000     -73.35320000
C      -43.51460000     -35.16490000     -74.01810000
C      -43.18410000     -33.75490000     -72.16650000
H      -43.87600000     -35.51180000     -74.96510000
C      -42.18080000     -34.72730000     -71.96010000
C      -43.12750000     -32.73360000     -71.14590000
C      -42.17100000     -32.94260000     -70.20810000
S      -42.20300000     -36.03460000     -73.11270000
S      -41.34670000     -34.48360000     -70.50000000
H      -41.94520000     -32.15820000     -69.46170000
