40
Properties=species:S:1:pos:R:3 #=T CELL(abcABC):=T 1.889726e+02=T 90.00000=T Traj:=T positionsangstrom=T Step:=T 0=T Bead:=T pbc="F F F"
C      -43.23060000     -32.89890000     -70.01210000
C      -43.06010000     -34.26200000     -70.28750000
C      -44.02710000     -35.20810000     -69.82980000
C      -45.22110000     -34.72590000     -69.14690000
C      -45.31330000     -33.38150000     -68.73490000
C      -44.29690000     -32.53530000     -69.19480000
H      -42.51760000     -32.14270000     -70.35310000
H      -44.06430000     -36.19770000     -70.36190000
H      -46.14520000     -32.94690000     -68.14700000
H      -44.46270000     -31.49100000     -69.05910000
C      -46.29160000     -35.77180000     -68.99720000
H      -46.66540000     -35.82640000     -67.95270000
H      -45.84040000     -36.75760000     -69.21690000
C      -41.96330000     -34.84210000     -71.15200000
H      -40.98030000     -34.45320000     -70.88760000
H      -41.85850000     -35.95220000     -71.06050000
S      -47.82580000     -35.49700000     -70.05050000
S      -42.14670000     -34.19800000     -72.82570000
C      -47.23810000     -35.58970000     -71.81300000
H      -46.09830000     -35.46160000     -71.97940000
H      -47.66920000     -36.48610000     -72.22340000
C      -43.78530000     -34.91340000     -73.33670000
H      -44.33620000     -35.33410000     -72.42780000
H      -43.73180000     -35.73530000     -74.02260000
C      -44.64580000     -33.80480000     -73.95740000
H      -44.11470000     -33.34500000     -74.83490000
H      -45.57810000     -34.16580000     -74.44410000
C      -47.92330000     -34.48990000     -72.67680000
H      -49.06200000     -34.51610000     -72.63840000
H      -47.64550000     -34.62370000     -73.72530000
C      -47.39840000     -33.11140000     -72.10960000
C      -48.21740000     -32.43900000     -71.21050000
C      -46.14970000     -32.48080000     -72.29610000
H      -49.31170000     -32.60520000     -71.04230000
C      -45.96640000     -31.38170000     -71.47950000
C      -44.93050000     -32.65180000     -73.10350000
C      -44.03480000     -31.63680000     -72.99370000
S      -47.46020000     -30.86090000     -70.71650000
S      -44.55900000     -30.41010000     -71.85610000
H      -43.04180000     -31.67420000     -73.46300000
