40
Properties=species:S:1:pos:R:3 #=T CELL(abcABC):=T 1.889726e+02=T 90.00000=T Traj:=T positionsangstrom=T Step:=T 0=T Bead:=T pbc="F F F"
C      -45.10530000     -35.19590000     -69.13160000
C      -44.46700000     -35.59700000     -70.28500000
C      -45.11510000     -35.62370000     -71.52190000
C      -46.46830000     -35.30320000     -71.54680000
C      -47.17670000     -35.00010000     -70.38740000
C      -46.47060000     -34.94360000     -69.16490000
H      -44.54810000     -35.38800000     -68.19010000
H      -44.62760000     -35.98130000     -72.39780000
H      -48.21710000     -34.64290000     -70.42610000
H      -47.10240000     -34.78750000     -68.26620000
C      -47.16030000     -35.43940000     -72.93530000
H      -48.16060000     -34.82790000     -72.83300000
H      -47.46850000     -36.46480000     -73.03970000
C      -42.99820000     -35.89610000     -70.01360000
H      -42.85470000     -36.44950000     -69.06620000
H      -42.43100000     -36.45280000     -70.77160000
S      -46.18800000     -35.15890000     -74.48210000
S      -42.07180000     -34.29190000     -69.85920000
C      -45.97350000     -33.46720000     -74.89040000
H      -45.51090000     -33.44300000     -75.87470000
H      -46.91340000     -33.06910000     -75.04720000
C      -42.27660000     -33.50730000     -71.52960000
H      -43.02210000     -34.09730000     -72.05490000
H      -41.30980000     -33.53900000     -72.10120000
C      -42.66540000     -31.99530000     -71.40530000
H      -42.00180000     -31.43510000     -70.77490000
H      -42.40550000     -31.49260000     -72.38430000
C      -45.15650000     -32.51130000     -73.96390000
H      -44.95840000     -31.51850000     -74.47700000
H      -44.12410000     -32.91250000     -73.68650000
C      -45.90920000     -32.14190000     -72.68110000
C      -47.29150000     -32.05050000     -72.69490000
C      -45.35300000     -31.82800000     -71.38230000
H      -47.95750000     -32.40430000     -73.42940000
C      -46.34810000     -31.47370000     -70.48020000
C      -44.04790000     -31.70700000     -70.73680000
C      -44.11960000     -31.20110000     -69.54670000
S      -47.95520000     -31.43810000     -71.22280000
S      -45.81630000     -30.85170000     -68.96630000
H      -43.37460000     -30.97500000     -68.81320000
