40
Properties=species:S:1:pos:R:3 #=T CELL(abcABC):=T 1.889726e+02=T 90.00000=T Traj:=T positionsangstrom=T Step:=T 0=T Bead:=T pbc="F F F"
C      -45.13110000     -35.07260000     -69.15420000
C      -44.52490000     -35.60030000     -70.29010000
C      -45.27850000     -35.77770000     -71.48600000
C      -46.57530000     -35.29050000     -71.59730000
C      -47.19930000     -34.69890000     -70.42850000
C      -46.48230000     -34.60260000     -69.22440000
H      -44.48500000     -34.84910000     -68.26750000
H      -44.72980000     -36.10780000     -72.37380000
H      -48.27750000     -34.44920000     -70.46390000
H      -46.90030000     -34.16580000     -68.39010000
C      -47.26690000     -35.20100000     -72.92920000
H      -47.86460000     -34.36690000     -72.95700000
H      -47.87560000     -36.07260000     -73.14230000
C      -43.07460000     -35.91890000     -70.22820000
H      -42.88920000     -36.59800000     -69.44560000
H      -42.73060000     -36.37880000     -71.16690000
S      -46.17430000     -35.16280000     -74.50040000
S      -42.03680000     -34.39110000     -69.97700000
C      -45.88990000     -33.33790000     -74.87860000
H      -45.41140000     -33.49510000     -75.86940000
H      -46.84500000     -32.79860000     -75.13020000
C      -42.32160000     -33.54540000     -71.54720000
H      -43.16900000     -34.05040000     -71.96290000
H      -41.48200000     -33.78720000     -72.22150000
C      -42.69420000     -32.05290000     -71.46120000
H      -41.88420000     -31.58410000     -70.94460000
H      -42.87040000     -31.67840000     -72.45220000
C      -45.06070000     -32.56670000     -73.79200000
H      -44.53270000     -31.79350000     -74.31400000
H      -44.35620000     -33.31340000     -73.34500000
C      -45.91460000     -32.11110000     -72.66940000
C      -47.29840000     -32.08510000     -72.63980000
C      -45.32550000     -31.73910000     -71.39080000
H      -47.93800000     -32.22310000     -73.52400000
C      -46.30810000     -31.47900000     -70.40510000
C      -43.99300000     -31.69710000     -70.75770000
C      -44.07990000     -31.40970000     -69.49150000
S      -47.98890000     -31.53650000     -71.09210000
S      -45.69620000     -30.93970000     -68.90070000
H      -43.27900000     -31.24890000     -68.70060000
