40
Properties=species:S:1:pos:R:3 #=T CELL(abcABC):=T 1.889726e+02=T 90.00000=T Traj:=T positionsangstrom=T Step:=T 0=T Bead:=T pbc="F F F"
C      -43.16830000     -32.89610000     -69.67160000
C      -43.09020000     -34.14470000     -70.34910000
C      -44.12710000     -35.17430000     -70.07320000
C      -45.30500000     -34.77620000     -69.31100000
C      -45.44140000     -33.44330000     -68.85090000
C      -44.34740000     -32.55250000     -69.03820000
H      -42.31050000     -32.20940000     -69.74130000
H      -43.84110000     -36.16780000     -70.30000000
H      -46.32790000     -33.06600000     -68.23670000
H      -44.42340000     -31.63880000     -68.46140000
C      -46.39620000     -35.79840000     -69.00280000
H      -46.74180000     -35.77320000     -67.96290000
H      -46.00670000     -36.82610000     -69.05940000
C      -41.84840000     -34.51210000     -71.08370000
H      -41.05560000     -33.82920000     -70.78960000
H      -41.45610000     -35.47660000     -70.72660000
S      -47.96110000     -35.58760000     -70.03860000
S      -41.96430000     -34.53440000     -72.99310000
C      -47.27020000     -35.63580000     -71.74050000
H      -46.21390000     -35.68680000     -71.79040000
H      -47.54020000     -36.64790000     -72.05280000
C      -43.73060000     -34.88000000     -73.25600000
H      -44.08850000     -35.24430000     -72.36630000
H      -43.65630000     -35.67940000     -74.01180000
C      -44.64370000     -33.80090000     -73.92800000
H      -44.08070000     -33.50480000     -74.77570000
H      -45.55180000     -34.35680000     -74.21610000
C      -47.78800000     -34.46250000     -72.61140000
H      -48.87610000     -34.55310000     -72.74810000
H      -47.46150000     -34.61540000     -73.62300000
C      -47.42320000     -33.02720000     -72.06450000
C      -48.17070000     -32.34880000     -71.11530000
C      -46.20310000     -32.30900000     -72.40110000
H      -49.12810000     -32.67900000     -70.53390000
C      -46.07930000     -31.15330000     -71.63750000
C      -44.96390000     -32.57840000     -73.19360000
C      -44.06230000     -31.57500000     -73.06380000
S      -47.40800000     -30.89950000     -70.54930000
S      -44.55790000     -30.34800000     -71.93190000
H      -43.19670000     -31.51460000     -73.69160000
