40
Properties=species:S:1:pos:R:3 #=T CELL(abcABC):=T 1.889726e+02=T 90.00000=T Traj:=T positionsangstrom=T Step:=T 0=T Bead:=T pbc="F F F"
C      -43.22320000     -33.40360000     -69.92210000
C      -43.35740000     -34.72060000     -70.32430000
C      -44.53980000     -35.45580000     -69.98910000
C      -45.51390000     -34.87660000     -69.21940000
C      -45.34350000     -33.55120000     -68.77320000
C      -44.17360000     -32.84990000     -69.06150000
H      -42.24810000     -32.82530000     -70.07330000
H      -44.44100000     -36.52710000     -70.20300000
H      -46.16520000     -33.15610000     -68.22760000
H      -44.16370000     -31.81890000     -68.68980000
C      -46.74010000     -35.65820000     -68.88820000
H      -47.05740000     -35.37140000     -67.86730000
H      -46.48290000     -36.74770000     -68.85710000
C      -42.33670000     -35.33270000     -71.21260000
H      -41.33040000     -35.37240000     -70.75900000
H      -42.60640000     -36.31470000     -71.43790000
S      -48.10820000     -35.48060000     -70.11280000
S      -42.15950000     -34.43680000     -72.84950000
C      -47.10020000     -35.45900000     -71.76590000
H      -46.11770000     -35.38380000     -71.46300000
H      -47.23210000     -36.47100000     -72.14780000
C      -43.78450000     -35.00460000     -73.51540000
H      -44.25850000     -35.54020000     -72.70860000
H      -43.66870000     -35.67420000     -74.33230000
C      -44.46290000     -33.71920000     -74.02650000
H      -43.70190000     -33.29130000     -74.73320000
H      -45.37010000     -33.95710000     -74.66620000
C      -47.53690000     -34.27310000     -72.60200000
H      -48.61360000     -34.20980000     -72.87050000
H      -47.03740000     -34.44600000     -73.62440000
C      -47.15840000     -32.96190000     -71.94580000
C      -47.93900000     -32.26620000     -71.03870000
C      -45.93830000     -32.21360000     -72.31380000
H      -48.92780000     -32.52740000     -70.58670000
C      -45.91850000     -30.97890000     -71.66790000
C      -44.77750000     -32.48910000     -73.13920000
C      -43.85350000     -31.48540000     -72.92340000
S      -47.28110000     -30.68480000     -70.53670000
S      -44.46250000     -30.11060000     -71.98380000
H      -43.02320000     -31.29410000     -73.54600000
