40
Properties=species:S:1:pos:R:3 #=T CELL(abcABC):=T 1.889726e+02=T 90.00000=T Traj:=T positionsangstrom=T Step:=T 0=T Bead:=T pbc="F F F"
C      -43.67140000     -33.26700000     -69.36100000
C      -43.46950000     -34.33660000     -70.26240000
C      -44.46420000     -35.28500000     -70.25430000
C      -45.61070000     -35.23670000     -69.45210000
C      -45.65740000     -34.20020000     -68.51720000
C      -44.70550000     -33.23430000     -68.46610000
H      -42.79960000     -32.59950000     -69.19380000
H      -44.34840000     -36.26280000     -70.70470000
H      -46.61520000     -34.08050000     -67.86850000
H      -44.86060000     -32.37890000     -67.72810000
C      -46.63400000     -36.33840000     -69.47570000
H      -46.99220000     -36.47650000     -68.43090000
H      -46.37380000     -37.39680000     -69.72900000
C      -42.14260000     -34.39810000     -70.93700000
H      -41.49800000     -33.70680000     -70.43720000
H      -41.74370000     -35.37400000     -70.66400000
S      -48.13620000     -35.88360000     -70.52260000
S      -42.01090000     -34.21760000     -72.76210000
C      -47.35850000     -35.38220000     -72.10470000
H      -46.27430000     -35.47330000     -72.03100000
H      -47.66340000     -36.15190000     -72.83880000
C      -43.77910000     -34.76970000     -73.44370000
H      -44.29820000     -35.40380000     -72.70900000
H      -43.52210000     -35.48310000     -74.22670000
C      -44.68980000     -33.70880000     -74.03760000
H      -44.25850000     -33.42300000     -75.03240000
H      -45.69370000     -34.18050000     -74.18760000
C      -47.84150000     -34.02490000     -72.63050000
H      -48.94190000     -34.04980000     -72.64120000
H      -47.63370000     -34.02760000     -73.74290000
C      -47.20070000     -32.78560000     -71.96060000
C      -47.94980000     -31.98580000     -71.10600000
C      -45.93080000     -32.16990000     -72.21150000
H      -48.97300000     -32.05160000     -70.86940000
C      -45.72630000     -30.94400000     -71.61410000
C      -44.80230000     -32.46850000     -73.12640000
C      -43.77310000     -31.63070000     -72.90080000
S      -47.06390000     -30.51320000     -70.59010000
S      -44.07270000     -30.32430000     -71.79760000
H      -42.73200000     -31.56920000     -73.29640000
