40
Properties=species:S:1:pos:R:3 #=T CELL(abcABC):=T 1.889726e+02=T 90.00000=T Traj:=T positionsangstrom=T Step:=T 0=T Bead:=T pbc="F F F"
C      -43.29260000     -33.36570000     -69.68890000
C      -43.24440000     -34.64740000     -70.18750000
C      -44.35510000     -35.42250000     -70.11380000
C      -45.52300000     -35.01700000     -69.42360000
C      -45.51230000     -33.74000000     -68.89850000
C      -44.41110000     -32.85420000     -69.08610000
H      -42.48860000     -32.73790000     -69.68910000
H      -44.15220000     -36.43380000     -70.37470000
H      -46.42260000     -33.43250000     -68.35820000
H      -44.38520000     -31.90900000     -68.54160000
C      -46.67530000     -35.97480000     -69.38510000
H      -47.03000000     -36.05030000     -68.37430000
H      -46.39910000     -37.01630000     -69.55070000
C      -42.10470000     -35.16680000     -71.01220000
H      -41.18450000     -34.87420000     -70.51630000
H      -42.14230000     -36.27440000     -71.01190000
S      -48.22550000     -35.48510000     -70.25080000
S      -42.15840000     -34.48350000     -72.71930000
C      -47.53960000     -35.52820000     -71.95040000
H      -46.44780000     -35.65480000     -71.85560000
H      -47.92000000     -36.31150000     -72.52790000
C      -43.89570000     -34.65030000     -73.29930000
H      -44.44520000     -34.67670000     -72.37250000
H      -44.01830000     -35.60710000     -73.65130000
C      -44.48600000     -33.54980000     -74.17070000
H      -43.71910000     -33.28730000     -74.93760000
H      -45.40720000     -33.91980000     -74.69720000
C      -47.74780000     -34.19350000     -72.68010000
H      -48.80920000     -33.97600000     -72.95970000
H      -47.21920000     -34.47440000     -73.62600000
C      -47.20250000     -32.89920000     -72.02940000
C      -47.84010000     -32.30580000     -70.87930000
C      -46.00950000     -32.11640000     -72.46050000
H      -48.76660000     -32.65850000     -70.50800000
C      -45.85650000     -30.94220000     -71.65370000
C      -44.80280000     -32.33080000     -73.28480000
C      -43.83560000     -31.39940000     -72.92160000
S      -47.03230000     -30.86310000     -70.36200000
S      -44.31510000     -30.11200000     -71.85060000
H      -42.81100000     -31.38060000     -73.30320000
