40
Properties=species:S:1:pos:R:3 #=T CELL(abcABC):=T 1.889726e+02=T 90.00000=T Traj:=T positionsangstrom=T Step:=T 0=T Bead:=T pbc="F F F"
C      -47.13280000     -36.05420000     -72.16260000
C      -47.87150000     -34.92630000     -72.55520000
C      -47.36020000     -34.11550000     -73.65180000
C      -46.27570000     -34.55350000     -74.42490000
C      -45.54520000     -35.70620000     -73.97770000
C      -45.96310000     -36.42020000     -72.85490000
H      -47.52840000     -36.82230000     -71.50040000
H      -48.02050000     -33.33410000     -74.06400000
H      -44.72970000     -36.20650000     -74.48500000
H      -45.48890000     -37.34950000     -72.58960000
C      -45.68310000     -33.76390000     -75.48640000
H      -46.43790000     -33.40430000     -76.19700000
H      -44.80700000     -34.30090000     -75.93310000
C      -49.16810000     -34.64210000     -71.88780000
H      -49.90280000     -34.37970000     -72.64170000
H      -49.53710000     -35.56360000     -71.39010000
S      -45.01680000     -32.14740000     -74.74340000
S      -49.23410000     -33.31230000     -70.65230000
C      -44.22340000     -32.70670000     -73.22660000
H      -44.88840000     -33.51560000     -72.79340000
H      -43.25560000     -33.11470000     -73.38730000
C      -47.77200000     -33.51530000     -69.57330000
H      -47.84590000     -34.45830000     -69.04480000
H      -47.97690000     -32.76470000     -68.83720000
C      -46.37160000     -33.35390000     -70.29570000
H      -46.23990000     -34.24390000     -70.93440000
H      -46.35010000     -32.46610000     -70.94890000
C      -44.20630000     -31.56820000     -72.20810000
H      -45.20870000     -31.28550000     -72.05560000
H      -43.69110000     -30.62340000     -72.58430000
C      -43.39980000     -31.85710000     -70.94370000
C      -42.05470000     -31.63600000     -70.82010000
C      -43.92060000     -32.44850000     -69.74860000
H      -41.50980000     -31.13540000     -71.58770000
C      -42.95440000     -32.60710000     -68.79300000
C      -45.12430000     -33.21010000     -69.44690000
C      -45.04970000     -33.81710000     -68.20000000
S      -41.35040000     -32.00970000     -69.28550000
S      -43.49540000     -33.52590000     -67.45910000
H      -45.74230000     -34.55880000     -67.68330000
