40
Properties=species:S:1:pos:R:3 #=T CELL(abcABC):=T 1.889726e+02=T 90.00000=T Traj:=T positionsangstrom=T Step:=T 0=T Bead:=T pbc="F F F"
C      -43.51520000     -33.36240000     -69.58170000
C      -43.28640000     -34.55950000     -70.17490000
C      -44.29380000     -35.50040000     -70.01120000
C      -45.50830000     -35.23050000     -69.40510000
C      -45.65150000     -33.95070000     -68.83350000
C      -44.69980000     -32.99200000     -68.98090000
H      -42.75670000     -32.60480000     -69.77340000
H      -44.18470000     -36.50060000     -70.50830000
H      -46.66550000     -33.60500000     -68.43710000
H      -44.85400000     -31.97510000     -68.68390000
C      -46.61210000     -36.19240000     -69.34760000
H      -47.09780000     -36.27030000     -68.35140000
H      -46.21230000     -37.13700000     -69.75690000
C      -42.04900000     -34.85170000     -71.07000000
H      -41.21870000     -34.20320000     -70.67610000
H      -41.68530000     -35.84390000     -71.07520000
S      -48.07560000     -35.48080000     -70.40600000
S      -42.25210000     -34.31220000     -72.81800000
C      -47.29820000     -35.35200000     -72.08980000
H      -46.20160000     -35.36430000     -72.10290000
H      -47.58240000     -36.25050000     -72.70590000
C      -43.91280000     -34.80470000     -73.33650000
H      -44.38960000     -34.90830000     -72.34060000
H      -43.88450000     -35.77640000     -73.94480000
C      -44.59130000     -33.65200000     -74.10360000
H      -43.96790000     -33.28180000     -74.93390000
H      -45.50920000     -33.91150000     -74.61800000
C      -47.78900000     -34.00810000     -72.73160000
H      -48.88970000     -33.97630000     -72.68720000
H      -47.47320000     -34.00830000     -73.79070000
C      -47.20010000     -32.81070000     -72.00820000
C      -47.97380000     -32.16490000     -71.00470000
C      -45.87650000     -32.27180000     -72.23380000
H      -48.92220000     -32.53940000     -70.68900000
C      -45.66080000     -31.18620000     -71.42980000
C      -44.78370000     -32.40150000     -73.15920000
C      -43.95520000     -31.29960000     -73.17960000
S      -47.02240000     -30.89250000     -70.25550000
S      -44.23020000     -30.12140000     -71.80120000
H      -43.22730000     -31.07250000     -73.94960000
