40
Properties=species:S:1:pos:R:3 #=T CELL(abcABC):=T 1.889726e+02=T 90.00000=T Traj:=T positionsangstrom=T Step:=T 0=T Bead:=T pbc="F F F"
C      -43.24680000     -33.42840000     -69.77250000
C      -43.31350000     -34.71620000     -70.30250000
C      -44.43110000     -35.53990000     -70.00310000
C      -45.54540000     -34.97560000     -69.38760000
C      -45.45270000     -33.67350000     -68.87260000
C      -44.27950000     -32.86100000     -69.05120000
H      -42.41310000     -32.78860000     -70.09720000
H      -44.55450000     -36.49400000     -70.52150000
H      -46.19640000     -33.22510000     -68.33170000
H      -44.16800000     -31.74210000     -68.76980000
C      -46.80170000     -35.74930000     -69.00220000
H      -47.13980000     -35.47720000     -68.00120000
H      -46.55760000     -36.82120000     -69.07200000
C      -42.12940000     -35.23120000     -71.07070000
H      -41.22160000     -34.98560000     -70.49910000
H      -42.17600000     -36.31560000     -71.40740000
S      -48.18350000     -35.52690000     -70.15040000
S      -42.06050000     -34.46900000     -72.80520000
C      -47.52110000     -35.43690000     -71.86150000
H      -46.41930000     -35.58380000     -71.92540000
H      -48.01280000     -36.29410000     -72.40830000
C      -43.74650000     -34.84400000     -73.48340000
H      -44.32360000     -35.25700000     -72.61430000
H      -43.75880000     -35.59650000     -74.36180000
C      -44.46740000     -33.64370000     -74.06110000
H      -43.87310000     -33.39310000     -74.91050000
H      -45.37480000     -33.97320000     -74.51330000
C      -47.76570000     -34.14620000     -72.60820000
H      -48.80240000     -34.01480000     -72.67570000
H      -47.37610000     -34.17120000     -73.65110000
C      -47.10100000     -32.95150000     -71.92590000
C      -47.92530000     -32.27980000     -71.03540000
C      -45.79190000     -32.28470000     -72.15120000
H      -48.96320000     -32.48410000     -70.74260000
C      -45.72650000     -31.11020000     -71.41760000
C      -44.77560000     -32.42450000     -73.20390000
C      -43.95280000     -31.33500000     -73.19230000
S      -47.20340000     -30.74460000     -70.46340000
S      -44.40090000     -30.03110000     -71.99180000
H      -43.01150000     -31.24690000     -73.69930000
