40
Properties=species:S:1:pos:R:3 #=T CELL(abcABC):=T 1.889726e+02=T 90.00000=T Traj:=T positionsangstrom=T Step:=T 0=T Bead:=T pbc="F F F"
C      -47.01910000     -36.30190000     -72.20230000
C      -47.82860000     -35.18140000     -72.50780000
C      -47.50000000     -34.36960000     -73.62050000
C      -46.30480000     -34.53140000     -74.26510000
C      -45.47390000     -35.62130000     -73.96150000
C      -45.88390000     -36.52400000     -72.91190000
H      -47.15860000     -36.87470000     -71.34990000
H      -48.09100000     -33.47410000     -73.70400000
H      -44.44280000     -35.66460000     -74.23960000
H      -45.19570000     -37.30320000     -72.67960000
C      -45.85750000     -33.54390000     -75.36670000
H      -46.75100000     -33.20400000     -75.87250000
H      -45.25270000     -33.96400000     -76.09090000
C      -49.17230000     -34.96900000     -71.73840000
H      -49.96610000     -34.89520000     -72.52660000
H      -49.37260000     -35.77800000     -71.08580000
S      -44.83280000     -32.05220000     -74.85310000
S      -49.18380000     -33.41070000     -70.65510000
C      -44.34970000     -32.47370000     -73.09290000
H      -45.05750000     -33.19230000     -72.66270000
H      -43.42980000     -33.08510000     -73.12730000
C      -47.60080000     -33.53150000     -69.60620000
H      -47.38660000     -34.61010000     -69.34380000
H      -47.75510000     -32.85160000     -68.76990000
C      -46.35470000     -33.14190000     -70.47240000
H      -46.31680000     -33.85290000     -71.30610000
H      -46.57850000     -32.18210000     -70.91550000
C      -44.13820000     -31.24350000     -72.17410000
H      -45.17910000     -30.78790000     -71.97720000
H      -43.44970000     -30.60430000     -72.69580000
C      -43.44050000     -31.67620000     -70.93540000
C      -42.15930000     -31.26800000     -70.66110000
C      -43.93350000     -32.53400000     -69.83130000
H      -41.51400000     -30.65500000     -71.33590000
C      -42.96650000     -32.76460000     -68.87560000
C      -45.17170000     -33.20400000     -69.59070000
C      -45.08410000     -33.88990000     -68.31650000
S      -41.44240000     -31.97170000     -69.16560000
S      -43.59190000     -33.66860000     -67.54380000
H      -45.78640000     -34.68580000     -68.02580000
