40
Properties=species:S:1:pos:R:3 #=T CELL(abcABC):=T 1.889726e+02=T 90.00000=T Traj:=T positionsangstrom=T Step:=T 0=T Bead:=T pbc="F F F"
C      -43.61740000     -33.40620000     -69.68900000
C      -43.31210000     -34.60710000     -70.32370000
C      -44.38450000     -35.54230000     -70.38520000
C      -45.70280000     -35.25510000     -69.81540000
C      -45.85780000     -34.07700000     -69.13610000
C      -44.76100000     -33.20690000     -68.96350000
H      -42.89040000     -32.59800000     -69.72540000
H      -44.20650000     -36.48180000     -70.95070000
H      -46.81470000     -33.76150000     -68.70600000
H      -44.82150000     -32.20670000     -68.52710000
C      -46.87460000     -36.19380000     -69.76490000
H      -47.51010000     -35.95690000     -68.87550000
H      -46.48040000     -37.20720000     -69.65830000
C      -41.99040000     -34.86550000     -71.01970000
H      -41.18500000     -34.51590000     -70.34360000
H      -41.74470000     -35.86120000     -71.25840000
S      -48.06990000     -35.99680000     -71.14260000
S      -41.70930000     -33.86180000     -72.54890000
C      -47.12410000     -35.54710000     -72.63190000
H      -45.98970000     -35.79670000     -72.55130000
H      -47.42610000     -36.24100000     -73.44090000
C      -43.26220000     -34.24340000     -73.35170000
H      -43.99100000     -34.77860000     -72.77690000
H      -43.16420000     -34.78970000     -74.30140000
C      -44.03140000     -32.88670000     -73.81100000
H      -43.33030000     -32.31720000     -74.37210000
H      -44.82900000     -33.28440000     -74.36540000
C      -47.39080000     -34.12870000     -73.08730000
H      -48.53420000     -34.08030000     -73.22200000
H      -46.98850000     -33.98110000     -74.07030000
C      -46.94850000     -33.11110000     -72.06530000
C      -47.97190000     -32.67320000     -71.20160000
C      -45.79780000     -32.14710000     -71.97070000
H      -49.02160000     -32.89790000     -71.20780000
C      -46.01080000     -31.13300000     -71.03660000
C      -44.53050000     -32.05460000     -72.63930000
C      -43.84560000     -30.98190000     -72.17480000
S      -47.60890000     -31.22900000     -70.33140000
S      -44.74930000     -29.97780000     -71.05070000
H      -42.88720000     -30.56000000     -72.65610000
