40
Properties=species:S:1:pos:R:3 #=T CELL(abcABC):=T 1.889726e+02=T 90.00000=T Traj:=T positionsangstrom=T Step:=T 0=T Bead:=T pbc="F F F"
C      -43.57360000     -33.31570000     -69.27390000
C      -43.44780000     -34.34670000     -70.20290000
C      -44.44840000     -35.29350000     -70.15430000
C      -45.56710000     -35.29150000     -69.35300000
C      -45.68080000     -34.14780000     -68.54010000
C      -44.71760000     -33.22250000     -68.42010000
H      -42.89570000     -32.48220000     -69.30740000
H      -44.49970000     -36.18310000     -70.77740000
H      -46.52250000     -34.01420000     -67.98590000
H      -44.70460000     -32.42180000     -67.74450000
C      -46.60800000     -36.33990000     -69.50930000
H      -47.00580000     -36.54600000     -68.52800000
H      -46.19270000     -37.19140000     -69.98390000
C      -42.16400000     -34.53970000     -71.00550000
H      -41.48290000     -33.78560000     -70.67000000
H      -41.71980000     -35.48800000     -70.84360000
S      -48.07500000     -35.89880000     -70.54600000
S      -42.06290000     -34.27070000     -72.83640000
C      -47.25260000     -35.23560000     -72.12970000
H      -46.23290000     -35.02020000     -71.81680000
H      -47.21680000     -35.95970000     -72.99350000
C      -43.61040000     -34.87380000     -73.54190000
H      -44.08730000     -35.57230000     -72.84220000
H      -43.27700000     -35.38090000     -74.46000000
C      -44.50480000     -33.63200000     -74.00750000
H      -44.05140000     -33.15990000     -74.89070000
H      -45.48730000     -33.96730000     -74.31260000
C      -47.90990000     -33.95440000     -72.65300000
H      -48.90080000     -33.88180000     -72.30850000
H      -47.91840000     -33.93210000     -73.72510000
C      -47.22360000     -32.80310000     -72.01660000
C      -48.02280000     -31.89780000     -71.31660000
C      -45.83700000     -32.30560000     -72.07700000
H      -49.07070000     -32.15500000     -71.08490000
C      -45.74030000     -31.04280000     -71.42620000
C      -44.72030000     -32.53390000     -72.97010000
C      -43.75620000     -31.62570000     -72.84200000
S      -47.19810000     -30.50260000     -70.65840000
S      -44.21480000     -30.22170000     -71.74600000
H      -42.87120000     -31.57270000     -73.44430000
