40
Properties=species:S:1:pos:R:3 #=T CELL(abcABC):=T 1.889726e+02=T 90.00000=T Traj:=T positionsangstrom=T Step:=T 0=T Bead:=T pbc="F F F"
C      -43.39630000     -33.47740000     -69.51590000
C      -43.44140000     -34.67920000     -70.28150000
C      -44.54830000     -35.49620000     -70.22530000
C      -45.61980000     -35.21560000     -69.40140000
C      -45.59130000     -34.03870000     -68.60670000
C      -44.43660000     -33.20360000     -68.64550000
H      -42.57640000     -32.76420000     -69.63810000
H      -44.61820000     -36.43450000     -70.75130000
H      -46.36390000     -33.83210000     -67.91490000
H      -44.47990000     -32.27030000     -68.06960000
C      -46.88210000     -36.04980000     -69.41570000
H      -47.46570000     -35.81510000     -68.53080000
H      -46.63100000     -37.11050000     -69.39560000
C      -42.31410000     -35.09570000     -71.18160000
H      -41.27930000     -35.18910000     -70.72220000
H      -42.50590000     -36.10130000     -71.70550000
S      -47.97450000     -35.76450000     -70.89240000
S      -42.05850000     -33.87820000     -72.46230000
C      -46.91270000     -35.56340000     -72.40990000
H      -45.87730000     -35.75550000     -72.03300000
H      -47.08960000     -36.43630000     -73.09420000
C      -43.52470000     -34.19550000     -73.57020000
H      -44.24090000     -34.79800000     -72.92250000
H      -43.25250000     -34.82950000     -74.35730000
C      -44.03040000     -32.83770000     -74.05700000
H      -43.08010000     -32.30600000     -74.23730000
H      -44.75540000     -32.87310000     -74.91510000
C      -47.00720000     -34.35050000     -73.20690000
H      -48.01450000     -34.37420000     -73.72310000
H      -46.20380000     -34.24270000     -73.95830000
C      -46.95440000     -33.09190000     -72.31670000
C      -48.01740000     -32.70850000     -71.49870000
C      -45.82600000     -32.17830000     -72.22210000
H      -49.07330000     -33.07230000     -71.56770000
C      -46.02650000     -31.15630000     -71.24780000
C      -44.59460000     -31.97280000     -72.92980000
C      -43.90850000     -30.87770000     -72.42260000
S      -47.61140000     -31.28570000     -70.58240000
S      -44.67970000     -30.05120000     -71.12400000
H      -42.91700000     -30.31440000     -72.82620000
