40
Properties=species:S:1:pos:R:3 #=T CELL(abcABC):=T 1.889726e+02=T 90.00000=T Traj:=T positionsangstrom=T Step:=T 0=T Bead:=T pbc="F F F"
C      -45.41390000     -32.97380000     -68.72240000
C      -44.48240000     -33.92410000     -69.16490000
C      -44.96110000     -35.02430000     -69.92900000
C      -46.25990000     -35.15520000     -70.34360000
C      -47.23240000     -34.30760000     -69.82960000
C      -46.80820000     -33.23110000     -68.98930000
H      -45.12110000     -32.16040000     -68.02110000
H      -44.18220000     -35.76190000     -70.19360000
H      -48.31710000     -34.45320000     -70.02570000
H      -47.47270000     -32.42050000     -68.61000000
C      -46.66720000     -36.22240000     -71.38170000
H      -47.48970000     -35.91630000     -72.04140000
H      -47.01360000     -37.06030000     -70.74800000
C      -43.03530000     -33.86100000     -68.71870000
H      -42.77690000     -33.94640000     -67.68610000
H      -42.46860000     -34.79410000     -69.00460000
S      -45.25790000     -36.86130000     -72.36420000
S      -41.91950000     -32.49410000     -69.38370000
C      -45.25080000     -35.97070000     -74.01630000
H      -44.49690000     -36.37100000     -74.72310000
H      -46.32260000     -35.96200000     -74.43060000
C      -42.26210000     -32.85860000     -71.14850000
H      -42.93830000     -33.76070000     -71.30300000
H      -41.39000000     -33.19170000     -71.72070000
C      -42.97610000     -31.73350000     -72.04310000
H      -42.40790000     -30.85870000     -71.74340000
H      -42.69780000     -31.98420000     -73.06090000
C      -44.74780000     -34.49570000     -73.76590000
H      -44.38530000     -34.18520000     -74.73040000
H      -43.89000000     -34.46110000     -73.12610000
C      -45.72010000     -33.52720000     -73.20360000
C      -47.03300000     -33.72280000     -73.55830000
C      -45.55310000     -32.38260000     -72.35310000
H      -47.44480000     -34.54940000     -74.11770000
C      -46.77050000     -31.77440000     -72.07140000
C      -44.45640000     -31.55250000     -71.87010000
C      -44.89750000     -30.53760000     -71.04160000
S      -48.14090000     -32.57260000     -72.77640000
S      -46.61520000     -30.36340000     -71.05370000
H      -44.21820000     -29.91160000     -70.60460000
