40
Properties=species:S:1:pos:R:3 #=T CELL(abcABC):=T 1.889726e+02=T 90.00000=T Traj:=T positionsangstrom=T Step:=T 0=T Bead:=T pbc="F F F"
C      -43.61780000     -33.36070000     -69.50130000
C      -43.24780000     -34.52180000     -70.19330000
C      -44.27430000     -35.45210000     -70.37530000
C      -45.53180000     -35.31040000     -69.90250000
C      -45.85830000     -34.17310000     -69.06960000
C      -44.90980000     -33.21040000     -68.95980000
H      -43.03260000     -32.47510000     -69.31270000
H      -43.87530000     -36.36740000     -70.91540000
H      -46.82490000     -34.08680000     -68.65290000
H      -44.98980000     -32.38460000     -68.32150000
C      -46.50740000     -36.45690000     -70.05890000
H      -46.91800000     -36.70130000     -69.10820000
H      -46.07010000     -37.42190000     -70.49580000
C      -41.91630000     -34.80950000     -70.86820000
H      -41.04770000     -34.57650000     -70.28860000
H      -41.88800000     -35.89250000     -71.12480000
S      -47.94530000     -36.03000000     -71.10300000
S      -41.76600000     -33.81990000     -72.44300000
C      -47.08010000     -35.39930000     -72.65350000
H      -46.02920000     -35.54800000     -72.41190000
H      -47.29020000     -36.03630000     -73.46420000
C      -43.31880000     -34.20470000     -73.49750000
H      -43.87540000     -35.12390000     -73.09300000
H      -42.78900000     -34.54660000     -74.33120000
C      -44.25340000     -32.92830000     -73.96090000
H      -43.71100000     -32.24090000     -74.70030000
H      -45.11450000     -33.31780000     -74.59090000
C      -47.36550000     -33.98440000     -73.13400000
H      -48.34400000     -33.98560000     -73.54190000
H      -46.70890000     -33.77470000     -73.99280000
C      -47.18430000     -32.88880000     -72.18260000
C      -48.13910000     -32.50890000     -71.21690000
C      -46.00700000     -32.10540000     -72.18090000
H      -49.09160000     -33.03150000     -71.03560000
C      -46.09940000     -31.10600000     -71.19040000
C      -44.73760000     -32.00220000     -72.88970000
C      -43.93150000     -31.08280000     -72.27770000
S      -47.57650000     -31.22520000     -70.17820000
S      -44.67780000     -30.16600000     -70.92630000
H      -42.93760000     -30.83100000     -72.62900000
