40
Properties=species:S:1:pos:R:3 #=T CELL(abcABC):=T 1.889726e+02=T 90.00000=T Traj:=T positionsangstrom=T Step:=T 0=T Bead:=T pbc="F F F"
C      -45.42330000     -33.27330000     -68.56740000
C      -44.35700000     -33.98290000     -69.15250000
C      -44.58720000     -35.03930000     -70.07270000
C      -45.90320000     -35.36810000     -70.37370000
C      -46.96290000     -34.70960000     -69.71640000
C      -46.73790000     -33.73400000     -68.76140000
H      -45.11890000     -32.50870000     -67.86860000
H      -43.83610000     -35.72740000     -70.55140000
H      -47.89470000     -35.12240000     -69.82180000
H      -47.50820000     -33.33520000     -68.12870000
C      -46.18910000     -36.66520000     -71.21640000
H      -47.30080000     -36.72940000     -71.42230000
H      -45.92870000     -37.43170000     -70.52230000
C      -43.00100000     -33.64940000     -68.62890000
H      -42.91430000     -33.40860000     -67.54240000
H      -42.29300000     -34.49040000     -68.72040000
S      -45.00970000     -36.92040000     -72.65190000
S      -42.27540000     -32.25900000     -69.50940000
C      -45.28570000     -35.79220000     -74.10830000
H      -44.73440000     -36.23410000     -74.89480000
H      -46.36050000     -35.90840000     -74.37670000
C      -42.28970000     -32.79530000     -71.29790000
H      -42.55300000     -33.79750000     -71.32700000
H      -41.22930000     -32.78570000     -71.72630000
C      -43.08920000     -31.89440000     -72.27120000
H      -42.54900000     -30.98790000     -72.47680000
H      -43.05610000     -32.50710000     -73.15630000
C      -44.85040000     -34.27350000     -73.91800000
H      -44.59610000     -33.89900000     -74.95150000
H      -43.93460000     -34.18410000     -73.35370000
C      -45.95000000     -33.43990000     -73.19850000
C      -47.32300000     -33.65800000     -73.39270000
C      -45.66820000     -32.25410000     -72.41200000
H      -47.70250000     -34.54920000     -73.94320000
C      -46.89730000     -31.66670000     -71.90710000
C      -44.49380000     -31.46960000     -71.97750000
C      -44.81300000     -30.43850000     -71.12530000
S      -48.33320000     -32.48600000     -72.47800000
S      -46.62130000     -30.26060000     -70.97430000
H      -44.19750000     -29.65020000     -70.59880000
