40
Properties=species:S:1:pos:R:3 #=T CELL(abcABC):=T 1.889726e+02=T 90.00000=T Traj:=T positionsangstrom=T Step:=T 0=T Bead:=T pbc="F F F"
C      -45.42330000     -33.18580000     -68.45290000
C      -44.40590000     -34.00770000     -69.01820000
C      -44.75750000     -34.93400000     -70.01080000
C      -46.05440000     -35.08620000     -70.36550000
C      -47.06710000     -34.27470000     -69.90970000
C      -46.75080000     -33.28200000     -68.96800000
H      -45.06400000     -32.41720000     -67.69600000
H      -43.90690000     -35.48590000     -70.43820000
H      -48.12600000     -34.46530000     -70.31570000
H      -47.50460000     -32.60460000     -68.53980000
C      -46.54960000     -36.28400000     -71.26920000
H      -47.30870000     -35.95170000     -71.95370000
H      -47.02600000     -37.13680000     -70.71310000
C      -42.93480000     -33.88540000     -68.65750000
H      -43.00140000     -33.65650000     -67.57790000
H      -42.28840000     -34.70540000     -68.91810000
S      -45.23450000     -36.97880000     -72.35080000
S      -42.25340000     -32.40140000     -69.53030000
C      -45.06790000     -35.93220000     -73.85240000
H      -44.24610000     -36.34060000     -74.39940000
H      -45.88610000     -36.01370000     -74.51930000
C      -42.22070000     -32.89100000     -71.34570000
H      -42.60350000     -33.96060000     -71.26560000
H      -41.22980000     -32.96790000     -71.57860000
C      -42.96340000     -31.89770000     -72.24290000
H      -42.55570000     -30.92030000     -72.13960000
H      -42.95160000     -32.12750000     -73.32750000
C      -44.75040000     -34.42300000     -73.75570000
H      -44.41970000     -34.15480000     -74.80680000
H      -43.88580000     -34.23290000     -73.04910000
C      -45.79860000     -33.46610000     -73.26570000
C      -47.08620000     -33.55450000     -73.63450000
C      -45.63470000     -32.25330000     -72.45170000
H      -47.56650000     -34.40450000     -74.09310000
C      -46.82880000     -31.67580000     -72.10850000
C      -44.44190000     -31.65520000     -71.82290000
C      -44.82840000     -30.60990000     -71.05140000
S      -48.22570000     -32.49640000     -72.75910000
S      -46.62120000     -30.40390000     -70.92790000
H      -44.18070000     -30.03220000     -70.48890000
