40
Properties=species:S:1:pos:R:3 #=T CELL(abcABC):=T 1.889726e+02=T 90.00000=T Traj:=T positionsangstrom=T Step:=T 0=T Bead:=T pbc="F F F"
C      -46.98830000     -36.45230000     -72.27300000
C      -47.86470000     -35.38110000     -72.49470000
C      -47.53320000     -34.33940000     -73.34910000
C      -46.36820000     -34.41140000     -74.11080000
C      -45.41760000     -35.43070000     -73.84190000
C      -45.74450000     -36.45300000     -72.93450000
H      -47.18870000     -37.21980000     -71.60180000
H      -48.22410000     -33.57310000     -73.60920000
H      -44.50560000     -35.56030000     -74.42080000
H      -45.00910000     -37.24790000     -72.72560000
C      -46.06170000     -33.38490000     -75.19000000
H      -47.01960000     -32.77450000     -75.40540000
H      -45.85410000     -33.80820000     -76.22510000
C      -49.13890000     -35.25180000     -71.70270000
H      -50.08470000     -35.27650000     -72.27480000
H      -49.26690000     -36.02000000     -70.90830000
S      -44.84110000     -32.07930000     -74.72900000
S      -49.23940000     -33.59670000     -70.92840000
C      -44.04210000     -32.47920000     -73.14550000
H      -44.39990000     -33.33900000     -72.63670000
H      -42.96320000     -32.68100000     -73.39740000
C      -47.73090000     -33.64780000     -69.89980000
H      -47.55930000     -34.65820000     -69.62910000
H      -48.01540000     -33.22540000     -68.92330000
C      -46.50950000     -32.83320000     -70.32380000
H      -46.24980000     -32.97300000     -71.40880000
H      -46.66830000     -31.75300000     -70.27760000
C      -44.03120000     -31.21930000     -72.22140000
H      -45.03750000     -30.83870000     -71.94460000
H      -43.51760000     -30.41300000     -72.70690000
C      -43.40020000     -31.58320000     -70.87550000
C      -42.14880000     -31.13210000     -70.54860000
C      -43.91660000     -32.46110000     -69.87200000
H      -41.39890000     -30.39510000     -71.00510000
C      -42.96830000     -32.78820000     -68.93450000
C      -45.22570000     -33.03570000     -69.53950000
C      -45.13100000     -33.80330000     -68.36820000
S      -41.47400000     -31.85960000     -69.05880000
S      -43.49180000     -33.87430000     -67.70830000
H      -46.07550000     -34.28420000     -68.04720000
