40
Properties=species:S:1:pos:R:3 #=T CELL(abcABC):=T 1.889726e+02=T 90.00000=T Traj:=T positionsangstrom=T Step:=T 0=T Bead:=T pbc="F F F"
C      -43.22910000     -33.10830000     -69.58020000
C      -42.54940000     -33.95660000     -70.49070000
C      -43.11040000     -35.22100000     -70.75980000
C      -44.32740000     -35.65960000     -70.20520000
C      -45.00200000     -34.75670000     -69.32150000
C      -44.37430000     -33.56750000     -68.99610000
H      -42.70170000     -32.12770000     -69.20290000
H      -42.68490000     -35.91230000     -71.45740000
H      -45.99940000     -34.94560000     -68.99740000
H      -44.90780000     -32.90310000     -68.29940000
C      -44.92040000     -37.00850000     -70.63050000
H      -45.13430000     -37.66020000     -69.80880000
H      -44.25940000     -37.49040000     -71.36110000
C      -41.41130000     -33.37580000     -71.38760000
H      -40.60810000     -32.88950000     -70.74280000
H      -40.99320000     -34.20040000     -72.01670000
S      -46.61330000     -36.71720000     -71.43720000
S      -42.26480000     -32.07460000     -72.45000000
C      -46.20090000     -35.73270000     -72.92240000
H      -45.09870000     -35.34910000     -72.97080000
H      -46.31090000     -36.46660000     -73.73320000
C      -43.58220000     -33.01300000     -73.28010000
H      -43.97450000     -33.75110000     -72.55000000
H      -43.12280000     -33.45070000     -74.15790000
C      -44.79650000     -32.27210000     -73.75950000
H      -44.48580000     -31.45850000     -74.45510000
H      -45.46050000     -32.93810000     -74.39220000
C      -47.26230000     -34.66620000     -73.12420000
H      -48.23850000     -35.15430000     -73.15720000
H      -47.17410000     -34.23330000     -74.15440000
C      -47.38350000     -33.57840000     -72.03840000
C      -48.38500000     -33.63720000     -71.08210000
C      -46.60830000     -32.33680000     -71.90160000
H      -49.07990000     -34.36830000     -71.04830000
C      -47.00390000     -31.60750000     -70.76570000
C      -45.58210000     -31.64910000     -72.64240000
C      -45.22650000     -30.48920000     -71.93830000
S      -48.33400000     -32.30640000     -69.90940000
S      -46.07320000     -30.19370000     -70.50780000
H      -44.36050000     -29.86980000     -72.02020000
