40
Properties=species:S:1:pos:R:3 #=T CELL(abcABC):=T 1.889726e+02=T 90.00000=T Traj:=T positionsangstrom=T Step:=T 0=T Bead:=T pbc="F F F"
C      -43.10520000     -33.17290000     -69.52110000
C      -42.56950000     -33.93520000     -70.60530000
C      -43.24810000     -35.13140000     -70.87140000
C      -44.37710000     -35.60940000     -70.16750000
C      -44.95620000     -34.77110000     -69.24580000
C      -44.26890000     -33.58690000     -68.89870000
H      -42.71810000     -32.19450000     -69.08110000
H      -42.87250000     -35.88210000     -71.62910000
H      -45.93910000     -35.01590000     -68.88530000
H      -44.79350000     -32.97720000     -68.15440000
C      -44.91510000     -36.90670000     -70.58100000
H      -45.10500000     -37.58880000     -69.72230000
H      -44.16660000     -37.47200000     -71.19840000
C      -41.47710000     -33.33430000     -71.43620000
H      -40.74440000     -32.83110000     -70.85060000
H      -40.94210000     -34.04790000     -72.04770000
S      -46.55080000     -36.85810000     -71.47000000
S      -42.25240000     -32.00090000     -72.40900000
C      -46.12120000     -35.62010000     -72.76420000
H      -45.30570000     -35.05880000     -72.35620000
H      -45.72450000     -36.00560000     -73.70170000
C      -43.46530000     -32.90930000     -73.50980000
H      -43.66440000     -33.86790000     -72.98310000
H      -43.09100000     -33.27550000     -74.45990000
C      -44.66010000     -32.03920000     -73.78990000
H      -44.27400000     -31.09130000     -74.16130000
H      -45.17710000     -32.58380000     -74.56270000
C      -47.25340000     -34.60800000     -73.12780000
H      -48.19380000     -35.11120000     -73.32250000
H      -46.93500000     -34.27560000     -74.09840000
C      -47.44170000     -33.46150000     -72.14460000
C      -48.47180000     -33.63010000     -71.29300000
C      -46.64190000     -32.29290000     -71.91440000
H      -49.08730000     -34.49740000     -71.32870000
C      -47.03890000     -31.73230000     -70.74630000
C      -45.46310000     -31.68790000     -72.53510000
C      -45.15540000     -30.59340000     -71.84020000
S      -48.50970000     -32.42360000     -69.98190000
S      -46.13630000     -30.28780000     -70.37500000
H      -44.52900000     -29.84640000     -72.18400000
