40
Properties=species:S:1:pos:R:3 #=T CELL(abcABC):=T 1.889726e+02=T 90.00000=T Traj:=T positionsangstrom=T Step:=T 0=T Bead:=T pbc="F F F"
C      -45.40570000     -33.29870000     -68.57310000
C      -44.44820000     -34.16100000     -69.03340000
C      -44.79510000     -35.21910000     -69.79140000
C      -46.17390000     -35.38970000     -70.12260000
C      -47.17050000     -34.56310000     -69.62760000
C      -46.76520000     -33.48790000     -68.82320000
H      -45.14290000     -32.38230000     -67.96350000
H      -43.98960000     -35.84680000     -70.18760000
H      -48.25400000     -34.72160000     -69.75100000
H      -47.44600000     -32.73180000     -68.54060000
C      -46.47570000     -36.62730000     -71.05910000
H      -47.49560000     -36.59590000     -71.64470000
H      -46.49800000     -37.44720000     -70.38820000
C      -42.95900000     -33.96620000     -68.72390000
H      -42.99150000     -33.86860000     -67.67270000
H      -42.36260000     -34.79850000     -69.10080000
S      -45.11690000     -36.91570000     -72.32370000
S      -42.36180000     -32.40090000     -69.48750000
C      -45.58190000     -35.91620000     -73.79120000
H      -45.27160000     -36.48310000     -74.61610000
H      -46.66590000     -35.84810000     -73.91410000
C      -42.33100000     -33.02500000     -71.27950000
H      -42.97070000     -33.90380000     -71.29870000
H      -41.28010000     -33.33100000     -71.55000000
C      -42.91600000     -32.02260000     -72.35000000
H      -42.22100000     -31.24950000     -72.42720000
H      -42.71170000     -32.56020000     -73.25780000
C      -45.02170000     -34.49020000     -73.81610000
H      -44.72420000     -34.25570000     -74.86240000
H      -44.11290000     -34.38400000     -73.21090000
C      -45.92870000     -33.41450000     -73.29590000
C      -47.27900000     -33.48550000     -73.47000000
C      -45.58760000     -32.20440000     -72.60340000
H      -47.76330000     -34.30290000     -73.97690000
C      -46.72480000     -31.46360000     -72.21450000
C      -44.35540000     -31.60840000     -72.06850000
C      -44.58470000     -30.53580000     -71.29790000
S      -48.16730000     -32.10070000     -72.85680000
S      -46.27440000     -30.17510000     -71.01030000
H      -43.83180000     -29.91930000     -70.83210000
