40
Properties=species:S:1:pos:R:3 #=T CELL(abcABC):=T 1.889726e+02=T 90.00000=T Traj:=T positionsangstrom=T Step:=T 0=T Bead:=T pbc="F F F"
C      -45.54400000     -33.05020000     -68.50210000
C      -44.52980000     -33.95800000     -68.96750000
C      -44.88320000     -34.94010000     -69.93440000
C      -46.15280000     -35.01690000     -70.47610000
C      -47.16890000     -34.13730000     -69.95910000
C      -46.85260000     -33.21890000     -68.96950000
H      -45.26720000     -32.33630000     -67.78880000
H      -44.09520000     -35.64830000     -70.26300000
H      -48.15480000     -34.18250000     -70.39180000
H      -47.66960000     -32.61180000     -68.59890000
C      -46.54910000     -36.15400000     -71.37730000
H      -47.34910000     -35.78390000     -71.97100000
H      -46.94830000     -37.02710000     -70.76910000
C      -43.02220000     -33.87450000     -68.56100000
H      -42.90020000     -33.49930000     -67.50840000
H      -42.46060000     -34.81430000     -68.63810000
S      -45.26920000     -37.00130000     -72.40220000
S      -42.17300000     -32.47710000     -69.49460000
C      -45.07330000     -35.91450000     -73.84310000
H      -44.28080000     -36.49530000     -74.39040000
H      -45.95500000     -35.95860000     -74.44550000
C      -42.48300000     -33.11640000     -71.22300000
H      -43.23380000     -33.88280000     -71.18270000
H      -41.59120000     -33.70000000     -71.49650000
C      -42.97790000     -32.09750000     -72.24360000
H      -42.17600000     -31.33990000     -72.19180000
H      -42.96660000     -32.58890000     -73.22820000
C      -44.59500000     -34.49870000     -73.61850000
H      -44.20520000     -34.02560000     -74.51470000
H      -43.70870000     -34.49060000     -72.94730000
C      -45.74800000     -33.56490000     -73.15980000
C      -47.12860000     -33.82440000     -73.24250000
C      -45.53410000     -32.30640000     -72.50410000
H      -47.53160000     -34.62090000     -73.86650000
C      -46.73940000     -31.65910000     -72.15170000
C      -44.42220000     -31.52760000     -71.96640000
C      -44.80810000     -30.38480000     -71.31120000
S      -48.10590000     -32.47490000     -72.70860000
S      -46.51600000     -30.31020000     -71.05660000
H      -44.14320000     -29.75510000     -70.69430000
