40
Properties=species:S:1:pos:R:3 #=T CELL(abcABC):=T 1.889726e+02=T 90.00000=T Traj:=T positionsangstrom=T Step:=T 0=T Bead:=T pbc="F F F"
C      -43.54770000     -33.02960000     -69.58070000
C      -42.95410000     -33.81760000     -70.55990000
C      -43.42920000     -35.10110000     -70.75330000
C      -44.54580000     -35.68450000     -70.13060000
C      -45.11020000     -34.90160000     -69.10930000
C      -44.65730000     -33.55220000     -68.89570000
H      -43.14410000     -32.12070000     -69.32900000
H      -42.92390000     -35.63930000     -71.58050000
H      -46.14020000     -34.99150000     -68.69150000
H      -45.13330000     -32.99760000     -68.11140000
C      -45.02440000     -37.02870000     -70.49730000
H      -45.08690000     -37.68900000     -69.66030000
H      -44.31160000     -37.55620000     -71.10300000
C      -41.76120000     -33.31540000     -71.31650000
H      -41.19130000     -32.66990000     -70.64790000
H      -41.06780000     -34.19000000     -71.61990000
S      -46.65140000     -36.84960000     -71.27700000
S      -42.10370000     -32.28430000     -72.81740000
C      -46.20660000     -35.67950000     -72.67310000
H      -45.28080000     -35.19830000     -72.46510000
H      -45.88640000     -36.16720000     -73.61170000
C      -43.48800000     -33.24150000     -73.61990000
H      -43.75970000     -34.04590000     -72.90360000
H      -43.36720000     -33.77290000     -74.62890000
C      -44.71330000     -32.29820000     -73.82220000
H      -44.37960000     -31.42900000     -74.44530000
H      -45.47340000     -32.87240000     -74.41750000
C      -47.26210000     -34.56990000     -72.98800000
H      -48.26570000     -34.98040000     -73.13660000
H      -46.95550000     -34.09440000     -73.92710000
C      -47.36240000     -33.49100000     -71.97410000
C      -48.20480000     -33.63660000     -70.89840000
C      -46.50630000     -32.27240000     -71.92360000
H      -48.72450000     -34.56310000     -70.68890000
C      -46.77280000     -31.55600000     -70.73710000
C      -45.40330000     -31.75290000     -72.61320000
C      -45.09940000     -30.45550000     -72.11580000
S      -48.09210000     -32.24570000     -69.77720000
S      -46.00100000     -30.02070000     -70.69680000
H      -44.37630000     -29.74910000     -72.52090000
