40
Properties=species:S:1:pos:R:3 #=T CELL(abcABC):=T 1.889726e+02=T 90.00000=T Traj:=T positionsangstrom=T Step:=T 0=T Bead:=T pbc="F F F"
C      -45.47630000     -33.44420000     -68.41830000
C      -44.41240000     -34.19580000     -68.90690000
C      -44.66440000     -35.28500000     -69.77120000
C      -45.99740000     -35.59600000     -70.14970000
C      -47.07530000     -34.83330000     -69.65860000
C      -46.82190000     -33.81820000     -68.73130000
H      -45.36620000     -32.64560000     -67.73870000
H      -43.88870000     -35.93250000     -70.14020000
H      -48.09060000     -35.01350000     -69.94160000
H      -47.70310000     -33.20090000     -68.20400000
C      -46.33000000     -36.62570000     -71.15330000
H      -47.14090000     -36.35510000     -71.75870000
H      -46.67000000     -37.55180000     -70.58770000
C      -43.03340000     -33.69190000     -68.55550000
H      -43.07250000     -33.33980000     -67.50160000
H      -42.23340000     -34.42690000     -68.49580000
S      -45.07260000     -37.08370000     -72.42580000
S      -42.43770000     -32.29690000     -69.67110000
C      -45.59390000     -35.82600000     -73.82440000
H      -45.10510000     -36.32270000     -74.69550000
H      -46.68790000     -35.90440000     -73.97140000
C      -42.44380000     -33.21230000     -71.23940000
H      -42.99560000     -34.16290000     -71.22800000
H      -41.48500000     -33.48680000     -71.69960000
C      -42.92590000     -32.23210000     -72.31970000
H      -42.21790000     -31.37030000     -72.45760000
H      -43.03740000     -32.71810000     -73.30020000
C      -45.07020000     -34.39280000     -73.71600000
H      -44.45570000     -34.03160000     -74.58210000
H      -44.39610000     -34.45230000     -72.85060000
C      -46.02950000     -33.33590000     -73.31020000
C      -47.38150000     -33.21330000     -73.56660000
C      -45.62240000     -32.22630000     -72.52140000
H      -47.89730000     -33.94620000     -74.16610000
C      -46.69710000     -31.38540000     -72.11030000
C      -44.36940000     -31.65550000     -72.05590000
C      -44.53010000     -30.51080000     -71.29900000
S      -48.16190000     -31.94230000     -72.71230000
S      -46.24410000     -30.03970000     -71.13680000
H      -43.76310000     -29.91550000     -70.91020000
