40
Properties=species:S:1:pos:R:3 #=T CELL(abcABC):=T 1.889726e+02=T 90.00000=T Traj:=T positionsangstrom=T Step:=T 0=T Bead:=T pbc="F F F"
C      -43.64850000     -32.93900000     -69.56090000
C      -43.09690000     -33.77630000     -70.52010000
C      -43.58780000     -35.05390000     -70.74040000
C      -44.62400000     -35.50900000     -69.95950000
C      -45.26240000     -34.65000000     -69.05490000
C      -44.70250000     -33.40890000     -68.75590000
H      -43.20770000     -32.05660000     -69.28520000
H      -43.20140000     -35.64700000     -71.52630000
H      -45.96000000     -35.05290000     -68.27540000
H      -45.23180000     -32.77200000     -68.03910000
C      -45.19590000     -36.93730000     -70.20390000
H      -45.63340000     -37.40570000     -69.30220000
H      -44.46830000     -37.50540000     -70.76460000
C      -41.87700000     -33.21030000     -71.24340000
H      -41.45440000     -32.46600000     -70.57680000
H      -41.15130000     -33.95720000     -71.42570000
S      -46.64020000     -36.97860000     -71.34820000
S      -42.17720000     -32.36370000     -72.89670000
C      -46.18020000     -35.94650000     -72.76270000
H      -45.12770000     -35.75460000     -72.69690000
H      -46.42630000     -36.55140000     -73.71300000
C      -43.63420000     -33.18500000     -73.71420000
H      -43.87710000     -34.06120000     -73.11470000
H      -43.32150000     -33.40840000     -74.67720000
C      -44.79120000     -32.20820000     -73.98650000
H      -44.37180000     -31.40800000     -74.58940000
H      -45.56170000     -32.69890000     -74.56720000
C      -47.11850000     -34.73760000     -72.91860000
H      -48.14960000     -35.17410000     -72.88920000
H      -46.87830000     -34.40200000     -73.95310000
C      -47.18830000     -33.60110000     -71.88210000
C      -48.07510000     -33.61060000     -70.85810000
C      -46.39300000     -32.31520000     -71.86030000
H      -48.83060000     -34.41880000     -70.59050000
C      -46.76100000     -31.49140000     -70.84560000
C      -45.36780000     -31.72920000     -72.65860000
C      -44.85550000     -30.58200000     -72.09930000
S      -48.11440000     -32.12980000     -69.91750000
S      -45.75500000     -30.11200000     -70.65620000
H      -44.04450000     -30.01050000     -72.49540000
