40
Properties=species:S:1:pos:R:3 #=T CELL(abcABC):=T 1.889726e+02=T 90.00000=T Traj:=T positionsangstrom=T Step:=T 0=T Bead:=T pbc="F F F"
C      -46.89900000     -36.48080000     -72.24460000
C      -47.82690000     -35.48230000     -72.48700000
C      -47.50220000     -34.48230000     -73.38200000
C      -46.24350000     -34.34250000     -74.05700000
C      -45.32020000     -35.44090000     -73.87410000
C      -45.68220000     -36.44370000     -72.98780000
H      -47.04940000     -37.41400000     -71.66560000
H      -48.16990000     -33.63960000     -73.56420000
H      -44.27500000     -35.36550000     -74.32050000
H      -44.94400000     -37.28090000     -72.80620000
C      -46.07750000     -33.20410000     -75.02020000
H      -46.90150000     -32.59820000     -75.07160000
H      -45.87290000     -33.71250000     -75.96670000
C      -49.07190000     -35.37630000     -71.67130000
H      -49.90170000     -35.50450000     -72.31360000
H      -49.04660000     -36.27430000     -70.97260000
S      -44.80420000     -31.88820000     -74.68840000
S      -49.22200000     -33.68120000     -70.92130000
C      -43.92110000     -32.37870000     -73.13690000
H      -44.30780000     -33.29820000     -72.66360000
H      -42.87730000     -32.49120000     -73.47130000
C      -47.68060000     -33.80850000     -69.91380000
H      -47.30880000     -34.81950000     -70.02150000
H      -47.92110000     -33.63830000     -68.83310000
C      -46.58360000     -32.88500000     -70.35980000
H      -46.45720000     -33.13180000     -71.40240000
H      -46.99520000     -31.87680000     -70.22100000
C      -44.14500000     -31.19110000     -72.10730000
H      -45.21930000     -31.20110000     -71.99010000
H      -43.99700000     -30.14830000     -72.47980000
C      -43.44010000     -31.50750000     -70.84250000
C      -42.15680000     -31.13960000     -70.59820000
C      -44.01130000     -32.31800000     -69.76500000
H      -41.48090000     -30.42830000     -71.15850000
C      -43.02620000     -32.66480000     -68.82750000
C      -45.29190000     -33.09080000     -69.64690000
C      -45.18300000     -33.96820000     -68.57160000
S      -41.48390000     -31.82790000     -69.11300000
S      -43.60370000     -33.92790000     -67.75180000
H      -46.05600000     -34.51020000     -68.20590000
