40
Properties=species:S:1:pos:R:3 #=T CELL(abcABC):=T 1.889726e+02=T 90.00000=T Traj:=T positionsangstrom=T Step:=T 0=T Bead:=T pbc="F F F"
C      -43.39010000     -32.77310000     -69.77040000
C      -42.76920000     -33.34790000     -70.86410000
C      -43.11020000     -34.66190000     -71.26830000
C      -44.05740000     -35.40030000     -70.57320000
C      -44.71820000     -34.76120000     -69.50120000
C      -44.32150000     -33.52200000     -69.12570000
H      -43.01000000     -31.73890000     -69.50310000
H      -42.50760000     -35.12080000     -72.09970000
H      -45.61270000     -35.23840000     -68.95490000
H      -44.83730000     -33.00170000     -68.27870000
C      -44.35250000     -36.84650000     -71.04860000
H      -44.54980000     -37.48720000     -70.17440000
H      -43.48610000     -37.13230000     -71.60950000
C      -41.89040000     -32.60490000     -71.79250000
H      -41.11080000     -32.06850000     -71.19430000
H      -41.34690000     -33.34730000     -72.45110000
S      -45.89540000     -36.98150000     -72.10020000
S      -42.76540000     -31.29460000     -72.86700000
C      -45.78200000     -35.43950000     -73.09050000
H      -45.06500000     -34.80120000     -72.64070000
H      -45.48260000     -35.66460000     -74.08350000
C      -44.03630000     -32.17660000     -73.83640000
H      -43.89720000     -33.20840000     -73.59590000
H      -43.82830000     -32.03350000     -74.93100000
C      -45.46870000     -31.62110000     -73.58860000
H      -45.46690000     -30.63010000     -74.02730000
H      -46.26790000     -32.02320000     -74.29060000
C      -47.18720000     -34.69230000     -73.11730000
H      -47.97290000     -35.50720000     -73.15700000
H      -47.45610000     -34.04830000     -74.03110000
C      -47.36660000     -33.89130000     -71.83970000
C      -47.98060000     -34.44010000     -70.73950000
C      -46.70230000     -32.60750000     -71.48790000
H      -48.39930000     -35.44530000     -70.78720000
C      -47.01000000     -32.23450000     -70.15250000
C      -46.01650000     -31.57430000     -72.19650000
C      -45.72520000     -30.51130000     -71.38180000
S      -47.91470000     -33.50120000     -69.30450000
S      -46.34190000     -30.67730000     -69.73470000
H      -44.92540000     -29.83280000     -71.66650000
