40
Properties=species:S:1:pos:R:3 #=T CELL(abcABC):=T 1.889726e+02=T 90.00000=T Traj:=T positionsangstrom=T Step:=T 0=T Bead:=T pbc="F F F"
C      -44.67580000     -34.31980000     -68.88370000
C      -43.60730000     -34.83790000     -69.60640000
C      -43.88750000     -35.97800000     -70.50150000
C      -45.17840000     -36.44310000     -70.63900000
C      -46.23340000     -35.89250000     -69.81250000
C      -45.98310000     -34.71480000     -69.02500000
H      -44.44380000     -33.48030000     -68.31240000
H      -43.12590000     -36.49950000     -71.07700000
H      -47.26400000     -36.33660000     -69.80970000
H      -46.77100000     -34.29640000     -68.40630000
C      -45.56730000     -37.67440000     -71.55320000
H      -46.28080000     -38.28370000     -70.94840000
H      -44.73340000     -38.23630000     -71.89940000
C      -42.22030000     -34.19790000     -69.44870000
H      -42.14680000     -33.89980000     -68.35880000
H      -41.43090000     -34.88640000     -69.70160000
S      -46.54210000     -37.07310000     -73.06730000
S      -42.11840000     -32.58100000     -70.47590000
C      -47.17170000     -35.31200000     -72.81910000
H      -48.05200000     -35.15270000     -73.53240000
H      -47.50930000     -35.36490000     -71.77950000
C      -42.59270000     -33.07010000     -72.24160000
H      -43.28160000     -33.91520000     -72.10570000
H      -41.71520000     -33.32180000     -72.81230000
C      -43.34820000     -31.93060000     -72.98070000
H      -42.58110000     -31.16160000     -73.30250000
H      -43.66020000     -32.39710000     -73.97760000
C      -46.20460000     -34.20640000     -72.94420000
H      -45.84720000     -34.00120000     -73.98080000
H      -45.16050000     -34.38210000     -72.42600000
C      -46.70150000     -32.90540000     -72.34690000
C      -48.00150000     -32.77120000     -71.95580000
C      -45.83410000     -31.74620000     -72.04260000
H      -48.74840000     -33.44890000     -71.92420000
C      -46.61030000     -30.76100000     -71.42400000
C      -44.48130000     -31.33410000     -72.22590000
C      -44.22230000     -30.14900000     -71.49320000
S      -48.31010000     -31.12960000     -71.31300000
S      -45.68190000     -29.42280000     -70.79950000
H      -43.31020000     -29.55470000     -71.52500000
