40
Properties=species:S:1:pos:R:3 #=T CELL(abcABC):=T 1.889726e+02=T 90.00000=T Traj:=T positionsangstrom=T Step:=T 0=T Bead:=T pbc="F F F"
C      -43.27380000     -32.57080000     -70.26320000
C      -42.58180000     -32.98350000     -71.45350000
C      -42.57230000     -34.32590000     -71.81530000
C      -43.32220000     -35.23760000     -71.11080000
C      -43.94900000     -34.81830000     -69.91190000
C      -43.83800000     -33.54680000     -69.41480000
H      -43.48670000     -31.47800000     -70.12590000
H      -42.06480000     -34.72830000     -72.65180000
H      -44.57770000     -35.54230000     -69.33210000
H      -44.21520000     -33.22040000     -68.43760000
C      -43.57530000     -36.61190000     -71.59460000
H      -43.19410000     -37.36180000     -70.95620000
H      -43.16910000     -36.92490000     -72.54360000
C      -42.18040000     -31.95960000     -72.46290000
H      -41.45810000     -31.24030000     -72.05400000
H      -41.67270000     -32.34010000     -73.35630000
S      -45.38490000     -36.91970000     -71.71810000
S      -43.62260000     -30.96680000     -73.04090000
C      -45.82630000     -35.75510000     -73.05160000
H      -45.01040000     -35.08370000     -73.23300000
H      -45.99170000     -36.21040000     -73.98600000
C      -44.73570000     -32.23680000     -73.85460000
H      -44.49680000     -33.27700000     -73.57940000
H      -44.71310000     -32.20190000     -74.88480000
C      -46.20840000     -31.78080000     -73.53710000
H      -46.37090000     -30.89470000     -74.14630000
H      -46.85040000     -32.54610000     -73.91980000
C      -47.11420000     -34.96710000     -72.69200000
H      -47.87840000     -35.70780000     -72.81250000
H      -47.40020000     -34.26060000     -73.50240000
C      -47.07650000     -34.17340000     -71.41530000
C      -47.39150000     -34.83740000     -70.23990000
C      -46.73050000     -32.82900000     -71.20720000
H      -47.71860000     -35.88070000     -70.24530000
C      -46.94260000     -32.44560000     -69.84650000
C      -46.50630000     -31.67960000     -72.03690000
C      -46.62010000     -30.49670000     -71.34890000
S      -47.40690000     -33.79490000     -68.78330000
S      -46.99760000     -30.71440000     -69.63190000
H      -46.38370000     -29.51740000     -71.75050000
