40
Properties=species:S:1:pos:R:3 #=T CELL(abcABC):=T 1.889726e+02=T 90.00000=T Traj:=T positionsangstrom=T Step:=T 0=T Bead:=T pbc="F F F"
C      -43.10870000     -32.39600000     -70.22280000
C      -42.77250000     -32.81420000     -71.55020000
C      -42.90810000     -34.16530000     -71.86350000
C      -43.41340000     -35.03620000     -70.88260000
C      -43.62620000     -34.61890000     -69.56050000
C      -43.62410000     -33.21740000     -69.26670000
H      -42.94110000     -31.34010000     -70.04920000
H      -42.80850000     -34.49790000     -72.93840000
H      -43.77530000     -35.27140000     -68.71960000
H      -43.93690000     -32.79270000     -68.34430000
C      -43.50130000     -36.54080000     -71.31890000
H      -43.19360000     -37.25170000     -70.52850000
H      -42.97060000     -36.55520000     -72.27060000
C      -42.36580000     -31.80570000     -72.57450000
H      -41.71400000     -30.94820000     -72.22370000
H      -41.87610000     -32.37870000     -73.35700000
S      -45.23800000     -37.10130000     -71.76760000
S      -43.74010000     -30.83350000     -73.26250000
C      -45.80570000     -35.77590000     -73.01360000
H      -45.07410000     -34.99850000     -73.01630000
H      -45.87170000     -36.26240000     -73.97040000
C      -44.83850000     -32.04840000     -74.08420000
H      -44.44470000     -32.97430000     -73.82440000
H      -44.74910000     -31.93540000     -75.14860000
C      -46.33650000     -31.96850000     -73.62240000
H      -46.72640000     -31.12670000     -74.11010000
H      -46.98670000     -32.72050000     -74.10710000
C      -47.19900000     -35.20380000     -72.63250000
H      -47.84420000     -36.06980000     -72.47760000
H      -47.56290000     -34.58020000     -73.45840000
C      -47.17470000     -34.40380000     -71.31620000
C      -47.44560000     -34.96840000     -70.08630000
C      -46.97340000     -32.95670000     -71.17980000
H      -47.45600000     -35.98530000     -69.76980000
C      -47.07210000     -32.53470000     -69.88920000
C      -46.62010000     -31.85740000     -72.06990000
C      -46.41230000     -30.70400000     -71.42890000
S      -47.42930000     -33.77700000     -68.72460000
S      -46.73850000     -30.80460000     -69.72280000
H      -46.21010000     -29.74740000     -71.82850000
