40
Properties=species:S:1:pos:R:3 #=T CELL(abcABC):=T 1.889726e+02=T 90.00000=T Traj:=T positionsangstrom=T Step:=T 0=T Bead:=T pbc="F F F"
C      -43.79220000     -35.44810000     -68.85550000
C      -43.32590000     -35.61060000     -70.20300000
C      -44.08730000     -36.22670000     -71.14380000
C      -45.44940000     -36.60380000     -70.88160000
C      -45.92320000     -36.30090000     -69.61950000
C      -45.12390000     -35.80000000     -68.60900000
H      -43.13730000     -35.01730000     -68.02530000
H      -43.74290000     -36.36360000     -72.19170000
H      -46.93560000     -36.39840000     -69.50930000
H      -45.35150000     -35.65040000     -67.61310000
C      -46.21140000     -37.35780000     -71.85580000
H      -47.09040000     -37.92080000     -71.43190000
H      -45.57300000     -38.22760000     -72.34550000
C      -41.91040000     -35.01270000     -70.48360000
H      -41.33350000     -34.80730000     -69.56380000
H      -41.43730000     -35.84050000     -71.04180000
S      -46.72840000     -36.27080000     -73.29400000
S      -42.01680000     -33.41640000     -71.36480000
C      -47.09740000     -34.71390000     -72.35370000
H      -48.04730000     -34.69520000     -71.74180000
H      -46.33700000     -34.67090000     -71.48060000
C      -43.46020000     -33.54590000     -72.50460000
H      -44.32300000     -34.00770000     -72.11940000
H      -43.12030000     -34.18120000     -73.29940000
C      -43.73750000     -32.09040000     -72.89700000
H      -42.75380000     -31.54510000     -72.98540000
H      -44.12160000     -32.09680000     -73.94570000
C      -46.88730000     -33.43120000     -73.13730000
H      -47.78410000     -33.44860000     -73.84470000
H      -45.97480000     -33.33590000     -73.77370000
C      -47.07440000     -32.30540000     -72.21200000
C      -48.29780000     -31.91910000     -71.67800000
C      -45.99080000     -31.41040000     -71.68880000
H      -49.25490000     -32.41090000     -71.80820000
C      -46.47140000     -30.45390000     -70.82890000
C      -44.54910000     -31.28100000     -71.91220000
C      -44.01910000     -30.18470000     -71.22570000
S      -48.19600000     -30.52760000     -70.61690000
S      -45.27940000     -29.38270000     -70.26290000
H      -42.91820000     -30.07040000     -71.14850000
