40
Properties=species:S:1:pos:R:3 #=T CELL(abcABC):=T 1.889726e+02=T 90.00000=T Traj:=T positionsangstrom=T Step:=T 0=T Bead:=T pbc="F F F"
C      -42.98770000     -31.55510000     -70.24650000
C      -42.78920000     -31.97630000     -71.61070000
C      -42.61600000     -33.36450000     -71.88520000
C      -42.79290000     -34.36280000     -70.90960000
C      -43.14720000     -33.88850000     -69.62530000
C      -43.12050000     -32.53010000     -69.21760000
H      -43.06410000     -30.48490000     -69.97880000
H      -42.26700000     -33.63980000     -72.93960000
H      -43.25170000     -34.69270000     -68.92800000
H      -43.36950000     -32.19480000     -68.19370000
C      -42.55310000     -35.77010000     -71.20810000
H      -41.94640000     -36.29700000     -70.46890000
H      -41.99440000     -35.92010000     -72.08600000
C      -42.82460000     -31.05890000     -72.78600000
H      -42.54590000     -29.95350000     -72.58220000
H      -42.27970000     -31.37800000     -73.68290000
S      -44.01660000     -36.85690000     -71.51110000
S      -44.61570000     -30.66710000     -73.28370000
C      -44.94060000     -35.88640000     -72.75120000
H      -44.52990000     -34.83950000     -72.81220000
H      -44.84500000     -36.28100000     -73.78090000
C      -45.22160000     -32.24110000     -73.92170000
H      -44.59380000     -32.95860000     -73.47090000
H      -45.05150000     -32.31120000     -74.99370000
C      -46.70280000     -32.46230000     -73.68090000
H      -47.16750000     -31.65730000     -74.17710000
H      -46.89580000     -33.38730000     -74.31940000
C      -46.43950000     -35.76790000     -72.37080000
H      -46.82830000     -36.78100000     -72.28290000
H      -46.77950000     -35.34100000     -73.29190000
C      -46.73820000     -34.88870000     -71.21910000
C      -46.84180000     -35.47790000     -70.00820000
C      -47.11270000     -33.48680000     -71.26070000
H      -46.69800000     -36.49660000     -69.77880000
C      -47.66320000     -33.06200000     -69.99790000
C      -47.11530000     -32.42790000     -72.18510000
C      -47.47880000     -31.19980000     -71.60380000
S      -47.50350000     -34.31210000     -68.84140000
S      -47.93630000     -31.36520000     -69.87910000
H      -47.73460000     -30.20600000     -72.05540000
