40
Properties=species:S:1:pos:R:3 #=T CELL(abcABC):=T 1.889726e+02=T 90.00000=T Traj:=T positionsangstrom=T Step:=T 0=T Bead:=T pbc="F F F"
C      -43.41590000     -31.78770000     -70.53860000
C      -42.89990000     -32.33790000     -71.69020000
C      -42.57250000     -33.68720000     -71.79930000
C      -42.94030000     -34.56120000     -70.74010000
C      -43.59080000     -34.06180000     -69.67290000
C      -43.75580000     -32.69640000     -69.49840000
H      -43.62780000     -30.67960000     -70.39040000
H      -42.08990000     -34.07390000     -72.72450000
H      -43.93340000     -34.68070000     -68.84320000
H      -44.23720000     -32.38270000     -68.60740000
C      -42.72800000     -36.05650000     -70.89910000
H      -42.29300000     -36.58410000     -70.10710000
H      -42.07330000     -36.29410000     -71.70580000
C      -42.68640000     -31.43090000     -72.87190000
H      -42.22370000     -30.53780000     -72.41660000
H      -42.01020000     -31.76350000     -73.62330000
S      -44.44010000     -36.75710000     -71.13790000
S      -44.22810000     -30.78080000     -73.68440000
C      -45.04250000     -35.80890000     -72.62430000
H      -44.56260000     -34.82600000     -72.72550000
H      -44.80620000     -36.35740000     -73.53760000
C      -45.23230000     -32.30140000     -74.21320000
H      -44.61450000     -33.15630000     -73.88280000
H      -45.24510000     -32.16400000     -75.36090000
C      -46.61490000     -32.20470000     -73.67120000
H      -47.16740000     -31.40270000     -74.12190000
H      -47.27160000     -33.11950000     -73.91510000
C      -46.57260000     -35.62170000     -72.51960000
H      -47.13240000     -36.52770000     -72.25340000
H      -47.05890000     -35.32660000     -73.41800000
C      -46.91640000     -34.77660000     -71.32920000
C      -47.14160000     -35.34130000     -70.08890000
C      -47.05830000     -33.29890000     -71.26870000
H      -47.15230000     -36.46790000     -69.96260000
C      -47.21290000     -32.90260000     -69.93570000
C      -46.85390000     -32.14430000     -72.13170000
C      -46.90270000     -30.98060000     -71.39400000
S      -47.62370000     -34.21110000     -68.83390000
S      -47.31140000     -31.18030000     -69.72220000
H      -46.72410000     -30.05540000     -71.83650000
