40
Properties=species:S:1:pos:R:3 #=T CELL(abcABC):=T 1.889726e+02=T 90.00000=T Traj:=T positionsangstrom=T Step:=T 0=T Bead:=T pbc="F F F"
C      -43.48220000     -31.83220000     -70.41030000
C      -43.04560000     -32.34550000     -71.59580000
C      -42.95570000     -33.73650000     -71.81490000
C      -43.30990000     -34.63300000     -70.79540000
C      -43.82680000     -34.11940000     -69.55020000
C      -43.89920000     -32.74680000     -69.46080000
H      -43.62300000     -30.82330000     -70.22620000
H      -42.57130000     -34.13790000     -72.69920000
H      -44.10070000     -34.81950000     -68.78480000
H      -44.25310000     -32.25870000     -68.58330000
C      -43.27280000     -36.10220000     -71.01430000
H      -42.75170000     -36.64490000     -70.21680000
H      -42.60240000     -36.41290000     -71.87160000
C      -42.50720000     -31.39390000     -72.73420000
H      -42.01100000     -30.56170000     -72.34110000
H      -41.75980000     -31.92360000     -73.25520000
S      -44.91310000     -36.94280000     -71.40410000
S      -43.89390000     -30.74490000     -73.74060000
C      -45.50530000     -35.91610000     -72.79740000
H      -44.89300000     -35.00910000     -72.85520000
H      -45.40160000     -36.42580000     -73.72340000
C      -44.88160000     -32.29750000     -74.11590000
H      -44.48400000     -33.23420000     -73.81580000
H      -44.83470000     -32.27000000     -75.20670000
C      -46.37040000     -32.19900000     -73.62960000
H      -46.77020000     -31.30650000     -74.17740000
H      -46.95780000     -32.99120000     -73.96070000
C      -46.99060000     -35.39480000     -72.58710000
H      -47.61240000     -36.20110000     -72.84940000
H      -47.29750000     -34.71470000     -73.41990000
C      -47.07050000     -34.67750000     -71.24280000
C      -47.29360000     -35.31690000     -70.00500000
C      -46.81410000     -33.28190000     -71.14980000
H      -47.45580000     -36.32770000     -69.79310000
C      -47.03110000     -32.87180000     -69.86550000
C      -46.51470000     -32.15810000     -72.12030000
C      -46.72680000     -30.98120000     -71.44750000
S      -47.23260000     -34.10490000     -68.68220000
S      -46.99950000     -31.14770000     -69.75290000
H      -46.58140000     -29.94780000     -71.79930000
