40
Properties=species:S:1:pos:R:3 #=T CELL(abcABC):=T 1.889726e+02=T 90.00000=T Traj:=T positionsangstrom=T Step:=T 0=T Bead:=T pbc="F F F"
C      -43.32390000     -31.77350000     -70.43150000
C      -42.90450000     -32.31880000     -71.66900000
C      -42.80850000     -33.73640000     -71.76730000
C      -43.21390000     -34.61960000     -70.75060000
C      -43.88690000     -34.05260000     -69.57570000
C      -43.85890000     -32.60100000     -69.47690000
H      -43.32270000     -30.70990000     -70.25210000
H      -42.45840000     -34.10720000     -72.70390000
H      -44.34380000     -34.65890000     -68.79600000
H      -44.30990000     -32.15510000     -68.55530000
C      -43.04860000     -36.13060000     -70.85660000
H      -42.95720000     -36.47070000     -69.86190000
H      -42.21630000     -36.30840000     -71.47090000
C      -42.53650000     -31.45060000     -72.83580000
H      -42.02580000     -30.49840000     -72.65030000
H      -41.93050000     -32.12110000     -73.55730000
S      -44.55670000     -37.03310000     -71.41130000
S      -43.99130000     -30.73910000     -73.69480000
C      -45.44070000     -35.99880000     -72.73820000
H      -44.80050000     -35.15660000     -72.95690000
H      -45.37530000     -36.68190000     -73.63760000
C      -45.05760000     -32.24760000     -74.09610000
H      -44.51390000     -33.12200000     -73.63870000
H      -45.04460000     -32.33820000     -75.20540000
C      -46.61010000     -32.13040000     -73.61890000
H      -47.22740000     -31.25210000     -74.00500000
H      -47.03300000     -33.08940000     -73.86390000
C      -46.88170000     -35.70010000     -72.43540000
H      -47.43490000     -36.56880000     -72.14640000
H      -47.31210000     -35.21180000     -73.32540000
C      -47.09390000     -34.69380000     -71.35670000
C      -47.22820000     -35.29090000     -70.07970000
C      -47.05960000     -33.23940000     -71.27040000
H      -47.18570000     -36.33570000     -69.89200000
C      -47.31880000     -32.84670000     -69.94170000
C      -46.70650000     -32.06890000     -72.14510000
C      -46.57220000     -30.89380000     -71.40690000
S      -47.49400000     -34.12620000     -68.75200000
S      -46.98050000     -31.09890000     -69.71490000
H      -46.36720000     -29.91950000     -71.90240000
