40
Properties=species:S:1:pos:R:3 #=T CELL(abcABC):=T 1.889726e+02=T 90.00000=T Traj:=T positionsangstrom=T Step:=T 0=T Bead:=T pbc="F F F"
C      -42.11400000     -36.35620000     -70.46900000
C      -42.68780000     -35.19550000     -69.99800000
C      -42.48030000     -33.94200000     -70.67150000
C      -41.76550000     -33.90810000     -71.91340000
C      -41.39960000     -35.13330000     -72.43650000
C      -41.55950000     -36.31410000     -71.72860000
H      -42.23360000     -37.34050000     -69.94120000
H      -42.94950000     -33.06400000     -70.34070000
H      -40.67590000     -35.12020000     -73.26190000
H      -41.11450000     -37.26370000     -72.03940000
C      -41.46490000     -32.56460000     -72.60780000
H      -40.42130000     -32.62870000     -72.97360000
H      -41.53800000     -31.89900000     -71.73090000
C      -43.43930000     -35.17580000     -68.62380000
H      -42.75440000     -35.30580000     -67.78790000
H      -43.80180000     -34.24720000     -68.44860000
S      -42.69030000     -32.12770000     -73.89550000
S      -44.93710000     -36.34940000     -68.55290000
C      -44.35780000     -32.50680000     -73.24570000
H      -44.90000000     -32.39130000     -74.17700000
H      -44.36500000     -33.58210000     -72.88700000
C      -46.14180000     -35.50070000     -69.65440000
H      -47.11960000     -35.86980000     -69.39490000
H      -45.93140000     -35.84570000     -70.72910000
C      -46.24430000     -33.93620000     -69.61840000
H      -46.15690000     -33.69540000     -68.54790000
H      -45.35300000     -33.51530000     -70.07520000
C      -44.86860000     -31.59200000     -72.05600000
H      -44.40350000     -30.65280000     -72.22780000
H      -44.58340000     -31.89350000     -71.08460000
C      -46.34460000     -31.56140000     -72.15520000
C      -46.96320000     -30.61940000     -72.94730000
C      -47.35610000     -32.31780000     -71.37440000
H      -46.39060000     -29.82310000     -73.34460000
C      -48.61590000     -31.83090000     -71.63970000
C      -47.42350000     -33.33080000     -70.31630000
C      -48.72020000     -33.53200000     -69.99950000
S      -48.71230000     -30.62830000     -72.90940000
S      -49.91320000     -32.51690000     -70.71860000
H      -49.00620000     -34.31450000     -69.32570000
