40
Properties=species:S:1:pos:R:3 #=T CELL(abcABC):=T 1.889726e+02=T 90.00000=T Traj:=T positionsangstrom=T Step:=T 0=T Bead:=T pbc="F F F"
C      -44.22470000     -31.47120000     -70.00750000
C      -43.40750000     -31.75890000     -71.13150000
C      -42.73070000     -33.02470000     -71.20500000
C      -42.93880000     -33.92210000     -70.14090000
C      -43.81250000     -33.62810000     -69.03060000
C      -44.24350000     -32.33910000     -68.91690000
H      -44.79740000     -30.51120000     -69.96390000
H      -42.15130000     -33.25970000     -72.08100000
H      -43.97850000     -34.29410000     -68.22370000
H      -44.90010000     -32.06690000     -68.14090000
C      -42.30840000     -35.29170000     -70.31310000
H      -42.27760000     -35.88900000     -69.43340000
H      -41.28950000     -35.14070000     -70.68990000
C      -43.39080000     -30.78550000     -72.25830000
H      -42.97790000     -29.85280000     -71.83880000
H      -42.71950000     -31.06530000     -73.12420000
S      -43.12450000     -36.32750000     -71.64340000
S      -44.98220000     -30.27340000     -73.03920000
C      -43.91140000     -35.29450000     -72.95050000
H      -43.60610000     -34.26110000     -72.69060000
H      -43.52840000     -35.54940000     -73.95310000
C      -45.40840000     -31.76600000     -74.11060000
H      -44.60000000     -32.59830000     -73.89850000
H      -45.14860000     -31.48370000     -75.19500000
C      -46.81820000     -32.34230000     -73.95880000
H      -47.60850000     -31.66020000     -74.32000000
H      -46.74450000     -33.35520000     -74.35410000
C      -45.46190000     -35.44940000     -73.01510000
H      -45.69490000     -36.47330000     -73.21660000
H      -45.66360000     -34.91560000     -73.92620000
C      -46.20900000     -35.12140000     -71.75260000
C      -46.37620000     -35.92720000     -70.69410000
C      -46.91420000     -33.79790000     -71.58190000
H      -46.13210000     -36.91610000     -70.46780000
C      -47.32570000     -33.67820000     -70.24870000
C      -47.20210000     -32.60770000     -72.40950000
C      -47.94780000     -31.70920000     -71.74160000
S      -47.18350000     -35.12160000     -69.29250000
S      -48.19650000     -32.18590000     -69.98820000
H      -48.23020000     -30.81260000     -72.22260000
