40
Properties=species:S:1:pos:R:3 #=T CELL(abcABC):=T 1.889726e+02=T 90.00000=T Traj:=T positionsangstrom=T Step:=T 0=T Bead:=T pbc="F F F"
C      -45.21440000     -36.21720000     -68.92400000
C      -44.37390000     -36.54870000     -70.01860000
C      -44.94810000     -36.83280000     -71.24260000
C      -46.38760000     -36.78930000     -71.40910000
C      -47.19790000     -36.58800000     -70.27900000
C      -46.61500000     -36.25570000     -69.05270000
H      -44.59570000     -35.90450000     -68.06430000
H      -44.29190000     -37.08750000     -72.08680000
H      -48.25890000     -36.65180000     -70.36790000
H      -47.22010000     -36.13790000     -68.12160000
C      -46.98050000     -36.88050000     -72.80150000
H      -48.08680000     -36.78170000     -72.55550000
H      -46.67430000     -37.78070000     -73.39170000
C      -42.91450000     -36.35710000     -69.92390000
H      -42.52490000     -35.90160000     -69.02920000
H      -42.41570000     -37.27090000     -69.97160000
S      -46.57080000     -35.48500000     -73.92510000
S      -42.30350000     -35.10670000     -71.17790000
C      -46.46550000     -33.99370000     -72.85060000
H      -47.48510000     -33.78170000     -72.31090000
H      -45.72570000     -34.20510000     -72.02520000
C      -43.24060000     -33.69050000     -70.44740000
H      -42.87990000     -33.48640000     -69.43870000
H      -44.22430000     -33.96560000     -70.17960000
C      -43.16610000     -32.48690000     -71.33550000
H      -42.08900000     -32.26340000     -71.33920000
H      -43.47130000     -32.89130000     -72.33210000
C      -46.03150000     -32.70370000     -73.65050000
H      -46.82410000     -32.52440000     -74.43340000
H      -45.07670000     -32.86520000     -74.12680000
C      -46.10310000     -31.44640000     -72.73420000
C      -47.20750000     -30.57720000     -72.86760000
C      -45.36170000     -31.11390000     -71.45380000
H      -47.94690000     -30.52440000     -73.71030000
C      -45.91930000     -29.98690000     -70.80510000
C      -44.05460000     -31.39200000     -70.87140000
C      -43.77710000     -30.58140000     -69.80100000
S      -47.29480000     -29.27050000     -71.72510000
S      -44.98790000     -29.45690000     -69.47960000
H      -42.88890000     -30.64350000     -69.23410000
