40
Properties=species:S:1:pos:R:3 #=T CELL(abcABC):=T 1.889726e+02=T 90.00000=T Traj:=T positionsangstrom=T Step:=T 0=T Bead:=T pbc="F F F"
C      -44.53110000     -31.59090000     -70.02610000
C      -43.68310000     -31.67500000     -71.12300000
C      -42.99590000     -32.94580000     -71.40360000
C      -43.11580000     -34.07420000     -70.54960000
C      -43.82480000     -33.91410000     -69.35220000
C      -44.51980000     -32.71900000     -69.16550000
H      -45.06670000     -30.72830000     -69.77860000
H      -42.25540000     -32.96640000     -72.17270000
H      -44.02950000     -34.74140000     -68.63340000
H      -45.12920000     -32.53830000     -68.27860000
C      -42.30590000     -35.27380000     -70.87470000
H      -42.14260000     -35.76420000     -69.89040000
H      -41.39410000     -34.99670000     -71.28530000
C      -43.37350000     -30.56870000     -72.10510000
H      -43.29060000     -29.58820000     -71.60720000
H      -42.40660000     -30.80580000     -72.62090000
S      -43.13990000     -36.56140000     -71.97980000
S      -44.67790000     -30.22180000     -73.31980000
C      -44.31740000     -35.72950000     -73.12510000
H      -44.00930000     -34.65610000     -73.22060000
H      -44.08490000     -36.36900000     -74.05060000
C      -45.20570000     -31.95720000     -73.69650000
H      -44.66850000     -32.70340000     -73.04820000
H      -44.83010000     -32.18370000     -74.78330000
C      -46.69110000     -32.30460000     -73.62280000
H      -47.41330000     -31.56180000     -73.97210000
H      -46.86680000     -33.01710000     -74.41980000
C      -45.88530000     -35.74890000     -72.82650000
H      -46.26130000     -36.85910000     -72.83140000
H      -46.34570000     -35.16110000     -73.62180000
C      -46.34920000     -35.14540000     -71.53590000
C      -46.43150000     -35.80960000     -70.37450000
C      -46.80940000     -33.73760000     -71.38910000
H      -46.10560000     -36.89340000     -70.36510000
C      -47.23480000     -33.43910000     -70.06980000
C      -47.13640000     -32.62090000     -72.21630000
C      -47.72110000     -31.54490000     -71.55530000
S      -47.05940000     -34.80930000     -69.04210000
S      -47.97610000     -31.92360000     -69.83280000
H      -48.01660000     -30.51710000     -71.87070000
