40
Properties=species:S:1:pos:R:3 #=T CELL(abcABC):=T 1.889726e+02=T 90.00000=T Traj:=T positionsangstrom=T Step:=T 0=T Bead:=T pbc="F F F"
C      -42.37240000     -36.45480000     -70.62280000
C      -42.73310000     -35.27860000     -69.86570000
C      -42.58970000     -33.98840000     -70.41630000
C      -41.86400000     -33.73890000     -71.62590000
C      -41.37200000     -34.88060000     -72.21400000
C      -41.60240000     -36.23350000     -71.71000000
H      -42.64500000     -37.47010000     -70.39960000
H      -42.81150000     -33.12400000     -69.80460000
H      -40.99690000     -34.81660000     -73.20900000
H      -41.22040000     -37.02270000     -72.41920000
C      -41.75390000     -32.34530000     -72.22700000
H      -40.68040000     -32.20600000     -72.44090000
H      -42.15040000     -31.49920000     -71.60050000
C      -43.40590000     -35.44030000     -68.54510000
H      -42.96160000     -36.19910000     -67.83100000
H      -43.52440000     -34.40020000     -68.06580000
S      -42.60530000     -32.45890000     -73.87440000
S      -45.09300000     -36.18260000     -68.60930000
C      -44.32310000     -32.80770000     -73.34980000
H      -44.97690000     -32.76640000     -74.21210000
H      -44.35240000     -33.79400000     -72.97270000
C      -46.14920000     -35.23650000     -69.82130000
H      -47.22960000     -35.56250000     -69.73480000
H      -45.78350000     -35.56050000     -70.79120000
C      -46.02810000     -33.71770000     -69.73120000
H      -46.03450000     -33.40690000     -68.66060000
H      -45.18950000     -33.32530000     -70.29170000
C      -44.81940000     -31.74150000     -72.35420000
H      -44.50430000     -30.68640000     -72.71720000
H      -44.33370000     -31.83430000     -71.35370000
C      -46.34570000     -31.60400000     -72.32390000
C      -46.94200000     -30.63910000     -73.11920000
C      -47.32660000     -32.23140000     -71.45980000
H      -46.41510000     -29.96940000     -73.81470000
C      -48.64520000     -31.77360000     -71.64940000
C      -47.27700000     -33.08130000     -70.30790000
C      -48.49060000     -33.45210000     -69.80180000
S      -48.66640000     -30.56170000     -72.90220000
S      -49.82610000     -32.68790000     -70.77170000
H      -48.75090000     -34.27320000     -69.11350000
