40
Properties=species:S:1:pos:R:3 #=T CELL(abcABC):=T 1.889726e+02=T 90.00000=T Traj:=T positionsangstrom=T Step:=T 0=T Bead:=T pbc="F F F"
C      -42.16790000     -36.28790000     -70.50240000
C      -42.63030000     -35.06550000     -70.03240000
C      -42.41290000     -33.95330000     -70.85980000
C      -41.70430000     -34.03660000     -72.09230000
C      -41.13710000     -35.31420000     -72.40970000
C      -41.39800000     -36.45510000     -71.63180000
H      -42.45430000     -37.21940000     -69.90860000
H      -42.70830000     -32.98300000     -70.39240000
H      -40.54960000     -35.52530000     -73.36970000
H      -41.15620000     -37.40790000     -72.00600000
C      -41.40690000     -32.79970000     -72.85810000
H      -40.70870000     -32.82210000     -73.67020000
H      -40.95760000     -31.96890000     -72.31590000
C      -43.41890000     -35.00710000     -68.75410000
H      -42.75460000     -35.39040000     -67.92220000
H      -43.74970000     -33.96910000     -68.51730000
S      -42.83960000     -31.88710000     -73.80040000
S      -44.86240000     -36.19510000     -68.63350000
C      -44.39040000     -32.55860000     -73.06830000
H      -45.18070000     -32.44090000     -73.77460000
H      -44.25460000     -33.61970000     -72.93670000
C      -46.28330000     -35.55470000     -69.77450000
H      -47.12140000     -36.02410000     -69.32430000
H      -46.20150000     -35.99240000     -70.72630000
C      -46.28960000     -34.03990000     -69.67200000
H      -46.15630000     -33.64360000     -68.68680000
H      -45.32730000     -33.74720000     -70.21030000
C      -44.90520000     -31.78670000     -71.83080000
H      -44.35490000     -30.85030000     -71.62010000
H      -44.71290000     -32.40070000     -70.90940000
C      -46.39560000     -31.54240000     -71.92840000
C      -46.85400000     -30.55010000     -72.79930000
C      -47.45970000     -32.26190000     -71.25900000
H      -46.31990000     -29.98160000     -73.48210000
C      -48.68750000     -31.81630000     -71.66530000
C      -47.47910000     -33.33730000     -70.26890000
C      -48.73670000     -33.72470000     -69.93440000
S      -48.65470000     -30.52810000     -72.85990000
S      -49.96940000     -32.66010000     -70.80430000
H      -48.95940000     -34.43550000     -69.21070000
