40
Properties=species:S:1:pos:R:3 #=T CELL(abcABC):=T 1.889726e+02=T 90.00000=T Traj:=T positionsangstrom=T Step:=T 0=T Bead:=T pbc="F F F"
C      -45.05560000     -36.39950000     -69.05640000
C      -44.42320000     -36.53170000     -70.26840000
C      -45.11260000     -36.67440000     -71.44580000
C      -46.49700000     -36.44390000     -71.49510000
C      -47.15440000     -36.38560000     -70.24200000
C      -46.43360000     -36.36780000     -69.04790000
H      -44.56380000     -36.33690000     -68.08480000
H      -44.49910000     -36.80960000     -72.39330000
H      -48.20800000     -36.27560000     -70.22590000
H      -46.98270000     -36.25420000     -68.09690000
C      -47.22270000     -36.42420000     -72.75700000
H      -48.24990000     -36.16620000     -72.63200000
H      -47.20460000     -37.43870000     -73.12320000
C      -42.89570000     -36.72530000     -70.19320000
H      -42.66330000     -36.97380000     -69.06470000
H      -42.65860000     -37.42210000     -70.97490000
S      -46.46460000     -35.32590000     -74.11320000
S      -41.99820000     -35.19210000     -70.77000000
C      -46.56460000     -33.72850000     -73.11210000
H      -47.63870000     -33.67040000     -72.84820000
H      -46.07080000     -33.85670000     -72.13320000
C      -43.11780000     -33.84120000     -70.23490000
H      -42.81490000     -33.40960000     -69.28920000
H      -44.06620000     -34.25810000     -70.14820000
C      -43.28300000     -32.77540000     -71.38440000
H      -42.32910000     -32.35200000     -71.55370000
H      -43.60750000     -33.30670000     -72.26680000
C      -46.04250000     -32.43520000     -73.77400000
H      -46.63230000     -32.30700000     -74.73200000
H      -45.06020000     -32.66220000     -74.03000000
C      -46.14250000     -31.23910000     -72.82830000
C      -47.25010000     -30.42680000     -72.89210000
C      -45.34570000     -30.99360000     -71.61170000
H      -48.08040000     -30.63010000     -73.49000000
C      -45.91000000     -29.97660000     -70.86690000
C      -44.24630000     -31.66150000     -70.92040000
C      -43.95990000     -31.01770000     -69.74880000
S      -47.32970000     -29.27710000     -71.52270000
S      -45.04140000     -29.64690000     -69.33430000
H      -43.31300000     -31.31920000     -68.87960000
