40
Properties=species:S:1:pos:R:3 #=T CELL(abcABC):=T 1.889726e+02=T 90.00000=T Traj:=T positionsangstrom=T Step:=T 0=T Bead:=T pbc="F F F"
C      -45.51780000     -36.86210000     -69.33190000
C      -44.59670000     -36.52630000     -70.35810000
C      -45.03660000     -36.53930000     -71.68420000
C      -46.37560000     -36.86900000     -72.00890000
C      -47.26710000     -37.09780000     -70.98060000
C      -46.85680000     -37.17140000     -69.64670000
H      -45.13750000     -37.03550000     -68.34260000
H      -44.30900000     -36.35070000     -72.50710000
H      -48.29690000     -37.29530000     -71.25890000
H      -47.63690000     -37.34180000     -68.95760000
C      -46.92340000     -36.65990000     -73.36200000
H      -47.95980000     -36.72920000     -73.49560000
H      -46.57060000     -37.47520000     -73.99120000
C      -43.18860000     -36.45370000     -69.92060000
H      -43.05490000     -36.24050000     -68.83700000
H      -42.66320000     -37.32880000     -70.03420000
S      -46.28970000     -35.03360000     -73.92580000
S      -42.16950000     -35.23170000     -70.92970000
C      -46.95550000     -33.85700000     -72.73460000
H      -48.04250000     -33.86740000     -72.78500000
H      -46.55670000     -34.20220000     -71.73140000
C      -42.67720000     -33.53220000     -70.34350000
H      -42.14100000     -32.85810000     -71.00370000
H      -42.33010000     -33.38220000     -69.35890000
C      -44.15600000     -33.25710000     -70.63970000
H      -44.40770000     -33.71480000     -71.56340000
H      -44.76290000     -33.85050000     -69.89680000
C      -46.36020000     -32.51270000     -73.19920000
H      -46.92220000     -32.25890000     -74.17690000
H      -45.36300000     -32.72450000     -73.53750000
C      -46.32810000     -31.26020000     -72.32840000
C      -47.13230000     -30.23610000     -72.71100000
C      -45.55950000     -31.00840000     -71.18620000
H      -47.76410000     -30.17060000     -73.58800000
C      -45.59980000     -29.71350000     -70.78080000
C      -44.51110000     -31.80640000     -70.50580000
C      -43.88130000     -30.97460000     -69.62210000
S      -46.96590000     -28.89130000     -71.57130000
S      -44.48780000     -29.34040000     -69.50680000
H      -43.01790000     -31.40470000     -69.12120000
