40
Properties=species:S:1:pos:R:3 #=T CELL(abcABC):=T 1.889726e+02=T 90.00000=T Traj:=T positionsangstrom=T Step:=T 0=T Bead:=T pbc="F F F"
C      -45.10330000     -36.41670000     -69.01260000
C      -44.45130000     -36.55290000     -70.29290000
C      -45.12260000     -36.51310000     -71.45810000
C      -46.55420000     -36.37090000     -71.43810000
C      -47.16290000     -36.12540000     -70.24580000
C      -46.46270000     -36.16630000     -68.97660000
H      -44.60710000     -36.43760000     -68.09590000
H      -44.61460000     -36.71980000     -72.38730000
H      -48.25250000     -35.89250000     -70.12650000
H      -47.03910000     -36.08260000     -68.12140000
C      -47.29520000     -36.46830000     -72.76640000
H      -48.27590000     -36.01850000     -72.58100000
H      -47.39880000     -37.52950000     -73.09710000
C      -42.93180000     -36.62680000     -70.35660000
H      -42.51710000     -37.02140000     -69.49550000
H      -42.57780000     -37.32620000     -71.15100000
S      -46.49670000     -35.40180000     -73.99610000
S      -42.08260000     -35.13820000     -70.88210000
C      -46.26130000     -33.96440000     -72.87480000
H      -47.23560000     -33.80660000     -72.42430000
H      -45.51270000     -34.18980000     -72.14660000
C      -43.20350000     -33.74660000     -70.34670000
H      -42.78740000     -33.30450000     -69.38020000
H      -44.16030000     -34.21970000     -69.96740000
C      -43.25500000     -32.61420000     -71.37830000
H      -42.24790000     -32.11090000     -71.46570000
H      -43.54820000     -32.95060000     -72.37510000
C      -45.83980000     -32.70150000     -73.62280000
H      -46.49060000     -32.51080000     -74.50510000
H      -44.81380000     -32.84060000     -73.97520000
C      -46.04490000     -31.45600000     -72.77920000
C      -47.08950000     -30.60650000     -72.96200000
C      -45.42950000     -31.11040000     -71.46680000
H      -47.61170000     -30.53510000     -73.90520000
C      -46.00620000     -30.10030000     -70.79370000
C      -44.19280000     -31.52480000     -70.87860000
C      -43.90990000     -30.79610000     -69.76200000
S      -47.31630000     -29.37670000     -71.71430000
S      -45.12570000     -29.62870000     -69.31380000
H      -43.05130000     -30.89330000     -69.04720000
