40
Properties=species:S:1:pos:R:3 #=T CELL(abcABC):=T 1.889726e+02=T 90.00000=T Traj:=T positionsangstrom=T Step:=T 0=T Bead:=T pbc="F F F"
C      -42.48230000     -35.94800000     -69.07120000
C      -43.31310000     -34.94200000     -68.62010000
C      -43.04800000     -33.63330000     -69.09600000
C      -41.96100000     -33.27820000     -69.94390000
C      -41.22170000     -34.38360000     -70.44200000
C      -41.50810000     -35.69460000     -70.03850000
H      -42.66960000     -36.95340000     -68.67170000
H      -43.65350000     -32.75160000     -68.72200000
H      -40.58460000     -34.20510000     -71.29350000
H      -40.79770000     -36.51660000     -70.30380000
C      -41.79110000     -31.91360000     -70.55080000
H      -40.71210000     -31.63280000     -70.50210000
H      -42.43980000     -31.12670000     -70.17120000
C      -44.60660000     -35.25460000     -67.91150000
H      -44.43820000     -35.76850000     -66.91250000
H      -45.22520000     -34.37120000     -67.75090000
S      -42.17570000     -32.02190000     -72.35240000
S      -45.70640000     -36.46180000     -68.96370000
C      -43.89980000     -32.54590000     -72.26530000
H      -44.22540000     -33.20000000     -73.08950000
H      -43.93830000     -33.24210000     -71.43240000
C      -45.82380000     -35.46690000     -70.50910000
H      -46.43370000     -36.08350000     -71.09680000
H      -44.84070000     -35.50290000     -70.88590000
C      -46.53610000     -34.06220000     -70.39330000
H      -47.17960000     -34.10590000     -69.54920000
H      -45.83650000     -33.30120000     -70.17420000
C      -44.81350000     -31.35730000     -71.86630000
H      -44.48640000     -30.32090000     -72.13170000
H      -44.93030000     -31.37500000     -70.82250000
C      -46.22930000     -31.43670000     -72.47700000
C      -46.58350000     -30.39890000     -73.33620000
C      -47.27870000     -32.47990000     -72.41700000
H      -46.09690000     -29.50570000     -73.38510000
C      -48.34650000     -32.19800000     -73.23020000
C      -47.44670000     -33.70800000     -71.55820000
C      -48.65060000     -34.24000000     -71.79320000
S      -48.07140000     -30.74490000     -74.13640000
S      -49.58070000     -33.39000000     -73.16440000
H      -49.08660000     -35.10870000     -71.33000000
