40
Properties=species:S:1:pos:R:3 #=T CELL(abcABC):=T 1.889726e+02=T 90.00000=T Traj:=T positionsangstrom=T Step:=T 0=T Bead:=T pbc="F F F"
C      -42.12130000     -36.19590000     -69.04420000
C      -43.24570000     -35.36170000     -68.92300000
C      -43.16360000     -34.01710000     -69.37460000
C      -41.95360000     -33.54370000     -69.98940000
C      -40.82700000     -34.38170000     -70.08380000
C      -40.93810000     -35.69880000     -69.55260000
H      -42.13860000     -37.21290000     -68.59170000
H      -44.08180000     -33.44140000     -69.14680000
H      -39.88470000     -33.99560000     -70.28570000
H      -40.07080000     -36.41450000     -69.54890000
C      -41.88260000     -32.05820000     -70.37830000
H      -40.84540000     -31.71130000     -70.26320000
H      -42.44100000     -31.39740000     -69.71400000
C      -44.41990000     -35.72560000     -68.01780000
H      -44.21660000     -36.57170000     -67.29580000
H      -44.73780000     -34.91800000     -67.37550000
S      -42.21890000     -31.62230000     -72.13380000
S      -45.83080000     -36.35050000     -69.03520000
C      -44.01250000     -32.15950000     -72.19800000
H      -44.06320000     -32.40690000     -73.27550000
H      -43.98870000     -33.16520000     -71.74400000
C      -45.93540000     -35.20930000     -70.44810000
H      -46.39630000     -35.74620000     -71.34140000
H      -44.88100000     -34.90840000     -70.76180000
C      -46.75630000     -33.87970000     -70.17850000
H      -47.52010000     -34.08980000     -69.34190000
H      -46.07180000     -33.10020000     -69.81620000
C      -45.13320000     -31.18140000     -71.69610000
H      -44.77180000     -30.07940000     -71.75640000
H      -45.34160000     -31.33350000     -70.59780000
C      -46.38370000     -31.28710000     -72.51840000
C      -46.64760000     -30.45160000     -73.57330000
C      -47.29350000     -32.36350000     -72.44110000
H      -45.99410000     -29.67460000     -73.78790000
C      -48.29470000     -32.26660000     -73.42730000
C      -47.55620000     -33.45410000     -71.47690000
C      -48.68160000     -34.18770000     -71.78550000
S      -48.16630000     -30.85270000     -74.41650000
S      -49.46030000     -33.60870000     -73.25890000
H      -49.11130000     -35.03600000     -71.26330000
