40
Properties=species:S:1:pos:R:3 #=T CELL(abcABC):=T 1.889726e+02=T 90.00000=T Traj:=T positionsangstrom=T Step:=T 0=T Bead:=T pbc="F F F"
C      -42.61500000     -35.90780000     -69.71600000
C      -43.57910000     -35.14120000     -69.02290000
C      -43.41530000     -33.74400000     -69.03720000
C      -42.34210000     -33.11660000     -69.70220000
C      -41.43040000     -33.87160000     -70.39010000
C      -41.54810000     -35.25360000     -70.40420000
H      -42.71320000     -36.95590000     -69.90360000
H      -44.04690000     -33.07750000     -68.51830000
H      -40.54060000     -33.38920000     -70.84510000
H      -40.66920000     -35.85940000     -70.82250000
C      -42.19660000     -31.64420000     -69.66920000
H      -41.25450000     -31.35600000     -69.17960000
H      -43.02470000     -31.07800000     -69.17240000
C      -44.69000000     -35.71060000     -68.17380000
H      -44.18530000     -36.38830000     -67.39540000
H      -45.37280000     -35.11090000     -67.61560000
S      -42.17250000     -30.83420000     -71.33140000
S      -45.97850000     -36.71010000     -69.10160000
C      -43.33410000     -31.86270000     -72.28570000
H      -43.57110000     -31.31080000     -73.14100000
H      -42.75610000     -32.68750000     -72.67710000
C      -46.29070000     -35.64380000     -70.55290000
H      -46.77620000     -36.18710000     -71.30080000
H      -45.29940000     -35.46760000     -70.92770000
C      -47.04700000     -34.30000000     -70.27750000
H      -47.82560000     -34.52950000     -69.48880000
H      -46.40550000     -33.51820000     -69.81180000
C      -44.67680000     -32.16600000     -71.60460000
H      -44.72540000     -31.43890000     -70.77360000
H      -44.62010000     -33.19240000     -71.15360000
C      -45.84100000     -32.00520000     -72.55470000
C      -45.88480000     -31.20240000     -73.64430000
C      -47.14010000     -32.75340000     -72.40800000
H      -45.12880000     -30.61420000     -74.01630000
C      -48.05710000     -32.33840000     -73.35740000
C      -47.74290000     -33.65910000     -71.47710000
C      -49.03330000     -33.95880000     -71.85770000
S      -47.33810000     -31.30820000     -74.58150000
S      -49.51690000     -33.21030000     -73.37680000
H      -49.68610000     -34.65430000     -71.32430000
