40
Properties=species:S:1:pos:R:3 #=T CELL(abcABC):=T 1.889726e+02=T 90.00000=T Traj:=T positionsangstrom=T Step:=T 0=T Bead:=T pbc="F F F"
C      -42.45130000     -36.00690000     -69.38360000
C      -43.38130000     -35.12870000     -68.85290000
C      -43.23680000     -33.75020000     -68.99370000
C      -42.24240000     -33.22840000     -69.78250000
C      -41.26000000     -34.09410000     -70.33350000
C      -41.34430000     -35.49460000     -70.11300000
H      -42.52150000     -37.11560000     -69.17230000
H      -44.03030000     -33.13800000     -68.62740000
H      -40.49140000     -33.68420000     -70.93440000
H      -40.61500000     -36.19440000     -70.61940000
C      -42.11130000     -31.75300000     -70.02650000
H      -41.18680000     -31.38320000     -69.64270000
H      -42.94820000     -31.24640000     -69.61050000
C      -44.61200000     -35.67730000     -68.20560000
H      -44.42950000     -36.39100000     -67.41230000
H      -45.15180000     -34.93580000     -67.71640000
S      -42.10570000     -31.46250000     -71.84380000
S      -45.62910000     -36.48930000     -69.43450000
C      -43.67230000     -32.24370000     -72.34920000
H      -43.72860000     -32.19120000     -73.47570000
H      -43.65090000     -33.31390000     -71.94570000
C      -45.90880000     -35.23470000     -70.85150000
H      -46.53390000     -35.75980000     -71.55260000
H      -44.88330000     -34.90370000     -71.20760000
C      -46.82060000     -34.11770000     -70.23310000
H      -47.40170000     -34.57820000     -69.41870000
H      -46.26370000     -33.27180000     -69.81950000
C      -44.87850000     -31.50190000     -71.65940000
H      -44.61640000     -30.44980000     -71.64840000
H      -45.08020000     -31.89480000     -70.64520000
C      -46.16140000     -31.64100000     -72.46810000
C      -46.26980000     -30.90820000     -73.59800000
C      -47.30490000     -32.48420000     -72.20620000
H      -45.55380000     -30.13940000     -73.96680000
C      -48.27590000     -32.33650000     -73.23530000
C      -47.65960000     -33.54730000     -71.29660000
C      -48.83620000     -34.13760000     -71.61420000
S      -47.84330000     -31.09390000     -74.38910000
S      -49.59490000     -33.43310000     -73.06100000
H      -49.40970000     -34.82900000     -71.04240000
