40
Properties=species:S:1:pos:R:3 #=T CELL(abcABC):=T 1.889726e+02=T 90.00000=T Traj:=T positionsangstrom=T Step:=T 0=T Bead:=T pbc="F F F"
C      -42.84190000     -35.82340000     -69.77350000
C      -43.66550000     -35.03650000     -68.87660000
C      -43.41380000     -33.67810000     -68.82340000
C      -42.42440000     -33.08680000     -69.64630000
C      -41.60130000     -33.89260000     -70.41970000
C      -41.73900000     -35.29530000     -70.40220000
H      -42.96270000     -36.90600000     -69.76060000
H      -43.99220000     -33.06540000     -68.22780000
H      -40.79130000     -33.39650000     -71.02160000
H      -41.01140000     -35.95330000     -70.99950000
C      -42.28750000     -31.59260000     -69.51600000
H      -41.29200000     -31.39340000     -69.06480000
H      -42.99400000     -31.17520000     -68.84000000
C      -44.76480000     -35.75540000     -68.07740000
H      -44.15310000     -36.37680000     -67.52800000
H      -45.34260000     -35.12840000     -67.42470000
S      -42.24870000     -30.87390000     -71.23640000
S      -45.83590000     -36.62880000     -69.26520000
C      -43.31290000     -31.96060000     -72.25630000
H      -43.24130000     -31.46970000     -73.28770000
H      -42.85860000     -32.97810000     -72.25190000
C      -46.13280000     -35.50020000     -70.69290000
H      -46.72220000     -36.06450000     -71.47300000
H      -45.20060000     -35.17440000     -71.16770000
C      -47.04240000     -34.32130000     -70.27940000
H      -47.84060000     -34.81590000     -69.69470000
H      -46.54910000     -33.44590000     -69.83180000
C      -44.66030000     -32.17800000     -71.66640000
H      -44.85890000     -31.43380000     -70.91460000
H      -44.73790000     -33.08690000     -71.09590000
C      -45.74720000     -32.10200000     -72.68530000
C      -45.75420000     -31.27410000     -73.72220000
C      -47.06780000     -32.83940000     -72.46370000
H      -45.01550000     -30.53090000     -73.98900000
C      -47.99870000     -32.41180000     -73.40440000
C      -47.66070000     -33.74170000     -71.53270000
C      -48.93800000     -34.03280000     -71.83860000
S      -47.29880000     -31.29010000     -74.63530000
S      -49.53540000     -33.16800000     -73.28370000
H      -49.56430000     -34.76630000     -71.26080000
