40
Properties=species:S:1:pos:R:3 #=T CELL(abcABC):=T 1.889726e+02=T 90.00000=T Traj:=T positionsangstrom=T Step:=T 0=T Bead:=T pbc="F F F"
C      -42.57080000     -36.14720000     -69.44660000
C      -43.67770000     -35.39730000     -69.00320000
C      -43.49860000     -33.97990000     -68.94260000
C      -42.43200000     -33.26880000     -69.51200000
C      -41.37190000     -34.06370000     -69.99730000
C      -41.43290000     -35.46540000     -69.87510000
H      -42.62480000     -37.20520000     -69.51900000
H      -44.32810000     -33.42180000     -68.66110000
H      -40.42470000     -33.56680000     -70.28400000
H      -40.60100000     -36.08050000     -70.22250000
C      -42.52770000     -31.79900000     -69.40890000
H      -41.86330000     -31.26350000     -68.72230000
H      -43.54280000     -31.54930000     -69.03880000
C      -44.86350000     -36.09400000     -68.34570000
H      -44.54230000     -36.94900000     -67.76830000
H      -45.51340000     -35.45360000     -67.62530000
S      -42.21830000     -30.68550000     -70.94190000
S      -46.05160000     -36.87510000     -69.47850000
C      -43.45970000     -31.32560000     -72.10250000
H      -43.50690000     -30.61020000     -72.93980000
H      -43.10370000     -32.24460000     -72.50430000
C      -46.31830000     -35.55120000     -70.82520000
H      -46.87660000     -36.11430000     -71.57360000
H      -45.34650000     -35.32250000     -71.17110000
C      -47.02020000     -34.25710000     -70.31350000
H      -47.72420000     -34.55400000     -69.58730000
H      -46.28220000     -33.62230000     -69.78200000
C      -44.83950000     -31.55640000     -71.49810000
H      -45.28160000     -30.70900000     -70.87740000
H      -44.82550000     -32.46880000     -70.86850000
C      -45.81960000     -31.78920000     -72.58370000
C      -45.79980000     -31.02880000     -73.76660000
C      -46.98890000     -32.71850000     -72.50390000
H      -45.10850000     -30.44690000     -74.27580000
C      -47.82820000     -32.41640000     -73.61500000
C      -47.66140000     -33.55070000     -71.53070000
C      -48.98030000     -33.82380000     -71.96110000
S      -47.17950000     -31.30050000     -74.79400000
S      -49.39260000     -33.24300000     -73.55470000
H      -49.62310000     -34.47260000     -71.39620000
