40
Properties=species:S:1:pos:R:3 #=T CELL(abcABC):=T 1.889726e+02=T 90.00000=T Traj:=T positionsangstrom=T Step:=T 0=T Bead:=T pbc="F F F"
C      -42.53340000     -36.14760000     -69.41020000
C      -43.69190000     -35.44250000     -69.09330000
C      -43.66240000     -34.04030000     -69.06110000
C      -42.55690000     -33.34720000     -69.55200000
C      -41.43940000     -34.09150000     -70.02470000
C      -41.40100000     -35.49050000     -69.82270000
H      -42.58610000     -37.17070000     -69.17100000
H      -44.43100000     -33.55320000     -68.55710000
H      -40.58570000     -33.51070000     -70.44650000
H      -40.39450000     -36.00130000     -69.95940000
C      -42.43290000     -31.89600000     -69.21770000
H      -41.55350000     -31.75600000     -68.58600000
H      -43.32900000     -31.65460000     -68.60070000
C      -44.81320000     -36.21270000     -68.39660000
H      -44.62380000     -37.09030000     -67.81510000
H      -45.24760000     -35.50890000     -67.68520000
S      -42.16270000     -30.87070000     -70.61380000
S      -46.12100000     -36.75890000     -69.55310000
C      -43.37740000     -31.26730000     -71.96960000
H      -43.30010000     -30.36030000     -72.59270000
H      -43.05430000     -32.15800000     -72.55690000
C      -46.34040000     -35.47820000     -70.79460000
H      -47.14670000     -35.84350000     -71.52540000
H      -45.44010000     -35.22530000     -71.38680000
C      -46.90500000     -34.06850000     -70.39830000
H      -47.62880000     -34.15570000     -69.52970000
H      -46.09590000     -33.41010000     -70.08000000
C      -44.82890000     -31.41110000     -71.51430000
H      -45.05210000     -30.45710000     -71.09250000
H      -44.91450000     -32.18120000     -70.77020000
C      -45.86050000     -31.62300000     -72.61060000
C      -45.82060000     -30.90930000     -73.79830000
C      -47.07630000     -32.49820000     -72.53750000
H      -45.32160000     -30.02740000     -74.12720000
C      -47.93530000     -32.34770000     -73.62900000
C      -47.64440000     -33.47190000     -71.61830000
C      -48.86810000     -34.01620000     -72.06010000
S      -47.21080000     -31.35200000     -74.90680000
S      -49.34250000     -33.34040000     -73.62060000
H      -49.42020000     -34.69480000     -71.41470000
