40
Properties=species:S:1:pos:R:3 #=T CELL(abcABC):=T 1.889726e+02=T 90.00000=T Traj:=T positionsangstrom=T Step:=T 0=T Bead:=T pbc="F F F"
C      -42.52780000     -35.95450000     -69.44890000
C      -43.48610000     -35.02570000     -68.98300000
C      -43.31450000     -33.66000000     -69.11600000
C      -42.14120000     -33.15740000     -69.74040000
C      -41.24050000     -34.10340000     -70.32140000
C      -41.41570000     -35.49330000     -70.14030000
H      -42.72140000     -36.97540000     -69.19910000
H      -44.09840000     -32.96950000     -68.71390000
H      -40.31900000     -33.72970000     -70.76020000
H      -40.73080000     -36.16070000     -70.53160000
C      -41.84360000     -31.72040000     -69.77920000
H      -40.87680000     -31.36660000     -69.40190000
H      -42.58430000     -31.27930000     -69.14990000
C      -44.69310000     -35.55720000     -68.27870000
H      -44.41700000     -36.14560000     -67.44470000
H      -45.17170000     -34.57970000     -67.89220000
S      -41.99480000     -31.05720000     -71.55570000
S      -45.78240000     -36.66630000     -69.30050000
C      -43.46140000     -31.90980000     -72.22290000
H      -43.37410000     -31.66750000     -73.28800000
H      -43.35460000     -32.99420000     -72.08330000
C      -46.42750000     -35.65550000     -70.67270000
H      -47.22100000     -36.29880000     -71.09590000
H      -45.66830000     -35.45500000     -71.40880000
C      -46.97290000     -34.28130000     -70.28730000
H      -47.73220000     -34.44400000     -69.56680000
H      -46.15810000     -33.70310000     -69.91910000
C      -44.86280000     -31.52160000     -71.62550000
H      -44.80350000     -30.48640000     -71.30630000
H      -44.89400000     -31.97500000     -70.63320000
C      -46.07400000     -31.81220000     -72.53160000
C      -46.12140000     -31.13720000     -73.73300000
C      -47.25980000     -32.58630000     -72.29220000
H      -45.32650000     -30.43330000     -74.08400000
C      -48.15060000     -32.41010000     -73.36010000
C      -47.73900000     -33.59860000     -71.33720000
C      -48.98860000     -34.08100000     -71.68770000
S      -47.66560000     -31.26570000     -74.57110000
S      -49.60560000     -33.34410000     -73.19400000
H      -49.51890000     -34.85630000     -71.15540000
