40
Properties=species:S:1:pos:R:3 #=T CELL(abcABC):=T 1.889726e+02=T 90.00000=T Traj:=T positionsangstrom=T Step:=T 0=T Bead:=T pbc="F F F"
C      -46.64880000     -29.98600000     -69.45930000
C      -47.09390000     -30.42060000     -70.77760000
C      -46.08580000     -30.55190000     -71.78050000
C      -44.72290000     -30.15760000     -71.55720000
C      -44.37930000     -29.66500000     -70.23980000
C      -45.32490000     -29.65900000     -69.20660000
H      -47.41520000     -29.88130000     -68.62900000
H      -46.35210000     -30.99250000     -72.76650000
H      -43.41970000     -29.45080000     -69.99450000
H      -45.00380000     -29.34920000     -68.18760000
C      -43.54610000     -30.15380000     -72.50940000
H      -42.60420000     -30.21420000     -71.91400000
H      -43.41660000     -29.28210000     -73.02230000
C      -48.59350000     -30.79720000     -70.98730000
H      -49.06590000     -30.84080000     -70.00620000
H      -49.17880000     -30.02460000     -71.58270000
S      -43.65770000     -31.45200000     -73.85770000
S      -48.86200000     -32.32240000     -71.97350000
C      -43.71550000     -33.16370000     -73.24670000
H      -44.69040000     -33.63280000     -73.54660000
H      -42.93810000     -33.67260000     -73.80850000
C      -47.98750000     -33.67870000     -71.00100000
H      -48.69160000     -34.55590000     -70.99980000
H      -47.85900000     -33.33520000     -69.97040000
C      -46.76190000     -34.07840000     -71.78110000
H      -47.13520000     -34.41380000     -72.84420000
H      -46.03590000     -33.22130000     -71.86470000
C      -43.51290000     -33.30000000     -71.74420000
H      -44.32170000     -32.84110000     -71.26990000
H      -42.72840000     -32.70270000     -71.37660000
C      -43.46190000     -34.67480000     -71.21630000
C      -42.32880000     -35.33660000     -70.86870000
C      -44.62740000     -35.45000000     -71.05760000
H      -41.31280000     -34.90340000     -70.83400000
C      -44.35140000     -36.69500000     -70.54620000
C      -46.09930000     -35.28380000     -71.22490000
C      -46.78570000     -36.45180000     -70.90770000
S      -42.65180000     -37.01050000     -70.27890000
S      -45.72900000     -37.66010000     -70.30270000
H      -47.85350000     -36.52840000     -71.00720000
