40
Properties=species:S:1:pos:R:3 #=T CELL(abcABC):=T 1.889726e+02=T 90.00000=T Traj:=T positionsangstrom=T Step:=T 0=T Bead:=T pbc="F F F"
C      -42.44370000     -36.00070000     -68.99030000
C      -43.50950000     -35.11200000     -68.68830000
C      -43.17760000     -33.73840000     -68.71930000
C      -41.98500000     -33.25490000     -69.36440000
C      -41.04970000     -34.12340000     -69.79700000
C      -41.24310000     -35.48740000     -69.58990000
H      -42.66360000     -37.08540000     -68.82390000
H      -43.87350000     -33.07930000     -68.28000000
H      -40.05770000     -33.77760000     -70.15960000
H      -40.50120000     -36.29740000     -69.78460000
C      -41.90360000     -31.74730000     -69.33820000
H      -40.83160000     -31.39130000     -69.17770000
H      -42.52450000     -31.51620000     -68.48580000
C      -44.91090000     -35.44770000     -68.18440000
H      -44.94470000     -36.09180000     -67.31090000
H      -45.37480000     -34.45570000     -68.09330000
S      -42.62730000     -30.88100000     -70.75740000
S      -45.91890000     -36.49690000     -69.26870000
C      -43.75940000     -31.94810000     -71.72210000
H      -43.72970000     -31.52120000     -72.73410000
H      -43.44030000     -32.99490000     -71.81340000
C      -46.13040000     -35.44940000     -70.76890000
H      -46.16770000     -36.14930000     -71.63130000
H      -45.28620000     -34.76260000     -70.93660000
C      -47.44440000     -34.46610000     -70.76400000
H      -48.28820000     -35.07100000     -70.33250000
H      -47.31450000     -33.63850000     -70.02270000
C      -45.21750000     -32.03040000     -71.25730000
H      -45.48060000     -31.27770000     -70.45960000
H      -45.53630000     -32.94650000     -70.74240000
C      -46.18630000     -31.81170000     -72.42940000
C      -46.04830000     -30.79440000     -73.38780000
C      -47.24990000     -32.72810000     -72.74050000
H      -45.15490000     -30.14350000     -73.55100000
C      -47.88640000     -32.42870000     -73.96040000
C      -47.75360000     -33.92290000     -72.09970000
C      -48.75300000     -34.47290000     -72.92730000
S      -47.25650000     -30.91760000     -74.69030000
S      -49.22370000     -33.49030000     -74.30330000
H      -49.31270000     -35.26000000     -72.49460000
