40
Properties=species:S:1:pos:R:3 #=T CELL(abcABC):=T 1.889726e+02=T 90.00000=T Traj:=T positionsangstrom=T Step:=T 0=T Bead:=T pbc="F F F"
C      -48.76890000     -34.25960000     -73.22440000
C      -47.67620000     -35.02440000     -72.78020000
C      -47.53480000     -35.30540000     -71.41530000
C      -48.46500000     -34.88960000     -70.43010000
C      -49.67110000     -34.31860000     -70.91970000
C      -49.77300000     -33.89440000     -72.29220000
H      -48.81290000     -33.95770000     -74.30710000
H      -46.68930000     -35.99230000     -71.07670000
H      -50.33850000     -33.89410000     -70.17850000
H      -50.62750000     -33.37960000     -72.58290000
C      -48.28620000     -35.22580000     -68.95210000
H      -48.89180000     -36.11510000     -68.60290000
H      -48.62290000     -34.37510000     -68.31520000
C      -46.57160000     -35.56680000     -73.63700000
H      -45.70360000     -35.80780000     -72.98190000
H      -46.81590000     -36.57380000     -74.00510000
S      -46.63580000     -35.71050000     -68.41900000
S      -46.06510000     -34.40390000     -74.91520000
C      -45.49150000     -34.23330000     -68.41210000
H      -46.17440000     -33.36950000     -68.09580000
H      -44.67700000     -34.43760000     -67.71650000
C      -45.14100000     -33.21430000     -73.80390000
H      -45.75080000     -32.73430000     -73.05050000
H      -44.96290000     -32.37230000     -74.43580000
C      -43.83160000     -33.75670000     -73.19310000
H      -44.03370000     -34.71260000     -72.62640000
H      -43.13220000     -33.97680000     -74.07360000
C      -44.96510000     -33.93280000     -69.84690000
H      -45.90990000     -33.68750000     -70.40740000
H      -44.49500000     -34.82740000     -70.24330000
C      -43.97060000     -32.77740000     -69.87710000
C      -43.67500000     -32.03660000     -68.73820000
C      -43.27420000     -32.24410000     -71.05080000
H      -43.91010000     -32.31690000     -67.69490000
C      -42.54190000     -31.12260000     -70.73630000
C      -43.12770000     -32.59370000     -72.46340000
C      -42.46980000     -31.62750000     -73.17840000
S      -42.57860000     -30.71500000     -69.07170000
S      -41.80520000     -30.34590000     -72.16350000
H      -42.15050000     -31.73930000     -74.21210000
