40
Properties=species:S:1:pos:R:3 #=T CELL(abcABC):=T 1.889726e+02=T 90.00000=T Traj:=T positionsangstrom=T Step:=T 0=T Bead:=T pbc="F F F"
C      -42.47270000     -36.02780000     -69.03510000
C      -43.55210000     -35.18770000     -68.76330000
C      -43.49320000     -33.80990000     -69.16620000
C      -42.23180000     -33.30770000     -69.44880000
C      -41.07190000     -34.11190000     -69.43190000
C      -41.16130000     -35.49990000     -69.34660000
H      -42.66900000     -37.08590000     -68.84250000
H      -44.46210000     -33.30210000     -69.14820000
H      -40.12410000     -33.66910000     -69.52370000
H      -40.32980000     -36.25570000     -69.38000000
C      -41.91040000     -31.80320000     -69.42020000
H      -40.83650000     -31.80080000     -69.67140000
H      -42.26970000     -31.35690000     -68.45980000
C      -44.81230000     -35.82330000     -68.19380000
H      -44.51950000     -36.67830000     -67.52410000
H      -45.29800000     -35.05060000     -67.57440000
S      -42.62150000     -30.55190000     -70.61670000
S      -45.98870000     -36.62840000     -69.44060000
C      -43.64780000     -31.54970000     -71.74840000
H      -43.52280000     -31.04540000     -72.73780000
H      -43.17500000     -32.49430000     -71.86790000
C      -46.05700000     -35.63990000     -70.96140000
H      -46.38220000     -36.32750000     -71.73600000
H      -45.07050000     -35.20450000     -71.24110000
C      -47.20840000     -34.59560000     -70.77830000
H      -48.04720000     -35.11030000     -70.44680000
H      -46.88390000     -33.84960000     -70.03170000
C      -45.09330000     -31.68460000     -71.29120000
H      -45.32970000     -30.84210000     -70.64000000
H      -45.07610000     -32.67430000     -70.82570000
C      -46.13720000     -31.71620000     -72.46670000
C      -46.10480000     -30.72900000     -73.43770000
C      -47.18350000     -32.71330000     -72.68920000
H      -45.44020000     -29.90610000     -73.62330000
C      -47.93580000     -32.41450000     -73.85390000
C      -47.65550000     -33.89890000     -72.04290000
C      -48.77040000     -34.44900000     -72.72260000
S      -47.37110000     -31.01970000     -74.69630000
S      -49.15690000     -33.57120000     -74.21110000
H      -49.31200000     -35.29960000     -72.48730000
