40
Properties=species:S:1:pos:R:3 #=T CELL(abcABC):=T 1.889726e+02=T 90.00000=T Traj:=T positionsangstrom=T Step:=T 0=T Bead:=T pbc="F F F"
C      -48.38540000     -34.51680000     -73.41110000
C      -47.39110000     -35.36100000     -72.88530000
C      -47.31160000     -35.62750000     -71.50040000
C      -48.16830000     -34.96310000     -70.57360000
C      -49.20600000     -34.14370000     -71.12450000
C      -49.36080000     -34.00950000     -72.48200000
H      -48.62250000     -34.36530000     -74.46860000
H      -46.50910000     -36.36790000     -71.18270000
H      -49.86040000     -33.76430000     -70.43360000
H      -50.33290000     -33.65390000     -72.97950000
C      -48.23950000     -35.15750000     -69.12980000
H      -49.05030000     -35.96530000     -68.87120000
H      -48.59030000     -34.26620000     -68.68630000
C      -46.47100000     -36.05270000     -73.85980000
H      -45.77930000     -36.72990000     -73.28940000
H      -46.97460000     -36.75360000     -74.45530000
S      -46.67970000     -35.62850000     -68.19800000
S      -45.55910000     -34.90820000     -74.97290000
C      -45.83470000     -33.92930000     -68.24960000
H      -46.47780000     -33.15290000     -67.79040000
H      -44.93240000     -34.11290000     -67.64190000
C      -45.18070000     -33.50530000     -73.72880000
H      -46.08330000     -33.35450000     -73.09270000
H      -45.04340000     -32.62750000     -74.32380000
C      -43.97440000     -33.87840000     -72.81830000
H      -44.28860000     -34.50320000     -71.92970000
H      -43.27270000     -34.46500000     -73.42910000
C      -45.44000000     -33.40350000     -69.71590000
H      -46.20820000     -32.80680000     -70.13680000
H      -45.26970000     -34.30310000     -70.25170000
C      -44.17700000     -32.49710000     -69.74930000
C      -43.82350000     -31.71090000     -68.67870000
C      -43.40890000     -32.09300000     -70.92760000
H      -44.27450000     -31.70440000     -67.70480000
C      -42.69250000     -30.85330000     -70.76930000
C      -43.27470000     -32.59740000     -72.29760000
C      -42.57850000     -31.76190000     -73.10440000
S      -42.79540000     -30.31340000     -69.10420000
S      -42.10240000     -30.29010000     -72.26820000
H      -42.24830000     -32.02840000     -74.11660000
