40
Properties=species:S:1:pos:R:3 #=T CELL(abcABC):=T 1.889726e+02=T 90.00000=T Traj:=T positionsangstrom=T Step:=T 0=T Bead:=T pbc="F F F"
C      -45.89420000     -32.30820000     -67.01200000
C      -45.17860000     -31.72680000     -68.07430000
C      -44.03960000     -32.43400000     -68.50540000
C      -43.68310000     -33.66610000     -67.95720000
C      -44.53870000     -34.23760000     -67.00390000
C      -45.65370000     -33.54960000     -66.46170000
H      -46.78660000     -31.84810000     -66.63900000
H      -43.42020000     -32.08070000     -69.31400000
H      -44.34430000     -35.32010000     -66.74570000
H      -46.36360000     -34.01900000     -65.81550000
C      -42.54890000     -34.39200000     -68.61840000
H      -41.93780000     -34.87070000     -67.82890000
H      -41.84520000     -33.77780000     -69.10610000
C      -45.61470000     -30.34270000     -68.60840000
H      -46.27430000     -29.82890000     -67.92420000
H      -44.81090000     -29.64350000     -68.86380000
S      -43.25970000     -35.81380000     -69.68260000
S      -46.55480000     -30.30980000     -70.26390000
C      -43.38220000     -35.04710000     -71.31500000
H      -43.45800000     -33.92070000     -71.22010000
H      -42.43520000     -35.16070000     -71.95630000
C      -47.19860000     -32.06460000     -70.41960000
H      -48.13710000     -32.00220000     -70.94820000
H      -47.37090000     -32.28110000     -69.34980000
C      -46.32370000     -33.05460000     -71.14870000
H      -45.26780000     -32.97360000     -70.78690000
H      -46.80080000     -34.01340000     -70.88440000
C      -44.56030000     -35.69940000     -72.11220000
H      -45.46750000     -35.54440000     -71.57280000
H      -44.39000000     -36.84120000     -72.03970000
C      -44.82280000     -35.13010000     -73.48500000
C      -44.65120000     -35.65650000     -74.69930000
C      -45.63160000     -33.87710000     -73.60760000
H      -44.15280000     -36.58390000     -74.84890000
C      -46.08360000     -33.66320000     -74.89010000
C      -46.23010000     -32.92170000     -72.63910000
C      -46.97900000     -31.96190000     -73.31680000
S      -45.53690000     -34.85220000     -76.04650000
S      -46.96840000     -32.19840000     -75.03900000
H      -47.51050000     -31.08730000     -72.81980000
