40
Properties=species:S:1:pos:R:3 #=T CELL(abcABC):=T 1.889726e+02=T 90.00000=T Traj:=T positionsangstrom=T Step:=T 0=T Bead:=T pbc="F F F"
C      -46.53350000     -32.84040000     -67.13340000
C      -45.83930000     -32.06870000     -68.05570000
C      -44.59840000     -32.58220000     -68.51210000
C      -44.12080000     -33.79040000     -68.02720000
C      -44.76910000     -34.53110000     -67.07490000
C      -46.05970000     -34.13860000     -66.75100000
H      -47.43580000     -32.47790000     -66.72650000
H      -44.01840000     -31.96200000     -69.19560000
H      -44.38860000     -35.43010000     -66.65640000
H      -46.73220000     -34.68650000     -66.10570000
C      -42.80360000     -34.40730000     -68.61080000
H      -42.23130000     -34.89260000     -67.80120000
H      -42.25350000     -33.57320000     -69.03800000
C      -46.20500000     -30.67930000     -68.58080000
H      -47.00960000     -30.30490000     -67.92790000
H      -45.40820000     -29.94830000     -68.46220000
S      -42.90960000     -35.94410000     -69.66670000
S      -46.55610000     -30.57300000     -70.40230000
C      -43.38300000     -35.12480000     -71.29350000
H      -43.31130000     -34.04380000     -71.20780000
H      -42.63440000     -35.38270000     -71.98810000
C      -47.78280000     -31.87490000     -70.74810000
H      -48.57690000     -31.56450000     -71.44540000
H      -48.31980000     -32.08060000     -69.79330000
C      -47.14250000     -33.15950000     -71.35350000
H      -46.27810000     -33.53080000     -70.74800000
H      -47.95360000     -33.87330000     -71.34560000
C      -44.74260000     -35.63270000     -71.87760000
H      -45.65670000     -35.32900000     -71.31510000
H      -44.84620000     -36.74370000     -71.84830000
C      -44.90660000     -35.02670000     -73.29190000
C      -44.24370000     -35.40210000     -74.38320000
C      -45.68770000     -33.79310000     -73.47110000
H      -43.65950000     -36.33830000     -74.59510000
C      -45.57890000     -33.35730000     -74.81800000
C      -46.56740000     -32.92590000     -72.77550000
C      -47.03550000     -31.90300000     -73.51130000
S      -44.48690000     -34.30700000     -75.71410000
S      -46.25970000     -31.73820000     -75.08250000
H      -47.69810000     -31.16640000     -73.05090000
