40
Properties=species:S:1:pos:R:3 #=T CELL(abcABC):=T 1.889726e+02=T 90.00000=T Traj:=T positionsangstrom=T Step:=T 0=T Bead:=T pbc="F F F"
C      -46.15710000     -32.56480000     -66.89790000
C      -45.49910000     -31.89570000     -67.88390000
C      -44.36840000     -32.45040000     -68.48870000
C      -43.94610000     -33.73520000     -68.13560000
C      -44.65820000     -34.40580000     -67.11530000
C      -45.70830000     -33.79180000     -66.48820000
H      -47.05630000     -32.08430000     -66.42900000
H      -43.74470000     -31.91150000     -69.17240000
H      -44.32340000     -35.41330000     -66.78490000
H      -46.25660000     -34.32490000     -65.66740000
C      -42.74860000     -34.42490000     -68.81140000
H      -42.19260000     -34.81050000     -67.98950000
H      -42.10300000     -33.76190000     -69.32400000
C      -45.99840000     -30.60660000     -68.31810000
H      -46.99280000     -30.30930000     -67.87250000
H      -45.23090000     -29.83550000     -68.05840000
S      -43.18130000     -35.92880000     -69.81620000
S      -46.35450000     -30.43680000     -70.24710000
C      -43.39680000     -35.17500000     -71.47460000
H      -43.57860000     -34.02680000     -71.38420000
H      -42.50710000     -35.34790000     -72.08450000
C      -47.31060000     -32.02790000     -70.39630000
H      -48.24500000     -31.70300000     -70.79130000
H      -47.40970000     -32.43190000     -69.35960000
C      -46.52450000     -33.08330000     -71.18120000
H      -45.50090000     -33.17030000     -70.82210000
H      -47.10770000     -34.02920000     -71.04450000
C      -44.60480000     -35.79730000     -72.14200000
H      -45.34520000     -35.95730000     -71.42310000
H      -44.26180000     -36.78540000     -72.51020000
C      -45.02440000     -35.14690000     -73.43350000
C      -44.64540000     -35.71740000     -74.63860000
C      -45.74520000     -33.86820000     -73.48650000
H      -44.17650000     -36.69030000     -74.75520000
C      -45.72870000     -33.37450000     -74.83050000
C      -46.52190000     -32.89070000     -72.64770000
C      -47.01280000     -31.80000000     -73.35110000
S      -45.01790000     -34.40490000     -75.93480000
S      -46.71470000     -31.96820000     -75.09420000
H      -47.39070000     -30.86490000     -73.09940000
