40
Properties=species:S:1:pos:R:3 #=T CELL(abcABC):=T 1.889726e+02=T 90.00000=T Traj:=T positionsangstrom=T Step:=T 0=T Bead:=T pbc="F F F"
C      -46.12730000     -32.34620000     -66.93850000
C      -45.31300000     -31.76670000     -67.94140000
C      -44.30040000     -32.49930000     -68.47680000
C      -43.88220000     -33.69610000     -67.90770000
C      -44.63080000     -34.19930000     -66.83120000
C      -45.76380000     -33.54540000     -66.37090000
H      -46.89000000     -31.75760000     -66.50160000
H      -43.64510000     -32.10210000     -69.25760000
H      -44.37080000     -35.13690000     -66.37360000
H      -46.35070000     -34.09470000     -65.69060000
C      -42.72010000     -34.42940000     -68.51430000
H      -42.21640000     -35.01690000     -67.75630000
H      -41.98890000     -33.73630000     -68.92300000
C      -45.68290000     -30.43910000     -68.53900000
H      -46.44350000     -30.08240000     -67.81340000
H      -44.86320000     -29.64200000     -68.48020000
S      -43.07930000     -35.73300000     -69.79210000
S      -46.36020000     -30.55970000     -70.26290000
C      -43.41580000     -34.91930000     -71.44220000
H      -43.70570000     -33.93760000     -71.18620000
H      -42.50090000     -34.80800000     -72.01820000
C      -47.14250000     -32.20670000     -70.29810000
H      -48.17950000     -32.11960000     -70.69730000
H      -47.26530000     -32.62160000     -69.30810000
C      -46.30860000     -33.08010000     -71.22910000
H      -45.25680000     -32.88860000     -70.93190000
H      -46.33540000     -34.13890000     -70.98780000
C      -44.36000000     -35.78790000     -72.29310000
H      -45.15570000     -36.31710000     -71.69920000
H      -43.79130000     -36.58790000     -72.66240000
C      -44.99430000     -35.13420000     -73.47380000
C      -44.85010000     -35.76530000     -74.65780000
C      -45.78350000     -33.89520000     -73.58470000
H      -44.24290000     -36.65490000     -74.77760000
C      -46.06540000     -33.60170000     -74.92240000
C      -46.37240000     -32.90920000     -72.68780000
C      -46.94850000     -31.84800000     -73.36120000
S      -45.39710000     -34.70110000     -76.06040000
S      -46.86260000     -32.02520000     -75.08870000
H      -47.69420000     -31.09150000     -72.94880000
