40
Properties=species:S:1:pos:R:3 #=T CELL(abcABC):=T 1.889726e+02=T 90.00000=T Traj:=T positionsangstrom=T Step:=T 0=T Bead:=T pbc="F F F"
C      -47.02520000     -32.78260000     -67.59400000
C      -45.90640000     -32.15210000     -68.11580000
C      -44.70790000     -32.83580000     -68.30280000
C      -44.64130000     -34.22900000     -67.98070000
C      -45.76010000     -34.85910000     -67.47450000
C      -47.01250000     -34.17380000     -67.35200000
H      -47.94330000     -32.32370000     -67.45830000
H      -43.86480000     -32.32330000     -68.82710000
H      -45.73600000     -35.96650000     -67.36460000
H      -47.94010000     -34.69730000     -67.08300000
C      -43.30440000     -34.95980000     -68.12750000
H      -42.97680000     -35.43810000     -67.18930000
H      -42.51060000     -34.25530000     -68.42360000
C      -46.02920000     -30.69340000     -68.47250000
H      -46.68110000     -30.11600000     -67.77550000
H      -45.11660000     -30.17500000     -68.44330000
S      -43.36880000     -36.19170000     -69.48620000
S      -46.38360000     -30.37860000     -70.35500000
C      -43.36440000     -35.11490000     -71.00300000
H      -43.55690000     -34.06870000     -70.62170000
H      -42.44240000     -34.94090000     -71.58790000
C      -47.41990000     -31.85960000     -70.76270000
H      -48.05440000     -31.50510000     -71.51280000
H      -48.03720000     -31.91410000     -69.88470000
C      -46.65340000     -33.03510000     -71.27990000
H      -45.69630000     -33.17150000     -70.70930000
H      -47.25910000     -33.95030000     -71.25750000
C      -44.52530000     -35.57790000     -71.98230000
H      -45.49130000     -35.66300000     -71.38330000
H      -44.26420000     -36.56420000     -72.19790000
C      -44.60820000     -34.72410000     -73.23690000
C      -43.99580000     -35.27670000     -74.39210000
C      -45.41110000     -33.58030000     -73.51030000
H      -43.48230000     -36.24420000     -74.43910000
C      -45.23210000     -33.21380000     -74.82800000
C      -46.23000000     -32.73170000     -72.71230000
C      -46.66820000     -31.63320000     -73.45770000
S      -44.16980000     -34.18110000     -75.76940000
S      -46.10910000     -31.71540000     -75.13520000
H      -47.21110000     -30.73380000     -73.14370000
