40
Properties=species:S:1:pos:R:3 #=T CELL(abcABC):=T 1.889726e+02=T 90.00000=T Traj:=T positionsangstrom=T Step:=T 0=T Bead:=T pbc="F F F"
C      -45.94180000     -36.36840000     -73.73800000
C      -47.00800000     -35.51380000     -73.51340000
C      -46.91970000     -34.23020000     -73.89610000
C      -45.75570000     -33.78060000     -74.73070000
C      -44.69710000     -34.66250000     -75.01590000
C      -44.82390000     -35.93640000     -74.42370000
H      -45.92370000     -37.40360000     -73.29770000
H      -47.78080000     -33.55230000     -73.70430000
H      -43.85840000     -34.32320000     -75.53750000
H      -44.09360000     -36.61560000     -74.82790000
C      -45.72730000     -32.42350000     -75.22740000
H      -46.59290000     -32.20860000     -75.83930000
H      -44.88410000     -32.26410000     -75.85770000
C      -48.22620000     -35.97410000     -72.69250000
H      -49.11720000     -36.27140000     -73.26020000
H      -47.94720000     -36.82670000     -72.06080000
S      -45.84530000     -31.09290000     -73.90440000
S      -48.75220000     -34.62170000     -71.40050000
C      -44.68120000     -31.65750000     -72.53740000
H      -44.65850000     -32.74060000     -72.41380000
H      -43.66910000     -31.39980000     -72.91780000
C      -47.48870000     -34.65950000     -70.05120000
H      -47.33320000     -35.63770000     -69.61150000
H      -47.90860000     -34.03100000     -69.30720000
C      -46.18070000     -34.06860000     -70.51310000
H      -45.71830000     -34.55400000     -71.39650000
H      -46.47230000     -33.09730000     -70.92170000
C      -45.07990000     -31.00020000     -71.22110000
H      -46.06970000     -31.33360000     -71.04560000
H      -45.12970000     -29.89720000     -71.35900000
C      -44.15230000     -31.43000000     -70.08640000
C      -43.21710000     -30.54770000     -69.58070000
C      -44.21580000     -32.67230000     -69.41370000
H      -42.98750000     -29.59600000     -70.04060000
C      -43.27500000     -32.76130000     -68.41690000
C      -45.09900000     -33.83540000     -69.42720000
C      -44.75920000     -34.72030000     -68.42670000
S      -42.26870000     -31.37300000     -68.30930000
S      -43.40930000     -34.22260000     -67.43800000
H      -45.21220000     -35.61540000     -68.23760000
