40
Properties=species:S:1:pos:R:3 #=T CELL(abcABC):=T 1.889726e+02=T 90.00000=T Traj:=T positionsangstrom=T Step:=T 0=T Bead:=T pbc="F F F"
C      -47.01610000     -32.66000000     -67.44880000
C      -45.83520000     -32.09820000     -68.01560000
C      -44.76570000     -32.92280000     -68.33880000
C      -44.81600000     -34.29940000     -68.02010000
C      -45.97410000     -34.88840000     -67.55630000
C      -47.11110000     -34.03600000     -67.33230000
H      -47.87410000     -32.06070000     -67.12970000
H      -43.83310000     -32.46950000     -68.64640000
H      -46.00650000     -35.97010000     -67.35590000
H      -48.05310000     -34.45150000     -66.91060000
C      -43.56030000     -35.09040000     -68.16190000
H      -43.37150000     -35.73450000     -67.27700000
H      -42.83360000     -34.36000000     -68.27660000
C      -45.89780000     -30.62670000     -68.40490000
H      -46.68310000     -30.18980000     -67.79880000
H      -44.91110000     -30.13450000     -68.20380000
S      -43.27230000     -36.26590000     -69.61190000
S      -46.34570000     -30.41810000     -70.20690000
C      -43.55530000     -35.11870000     -71.06250000
H      -43.66260000     -34.11200000     -70.64810000
H      -42.61120000     -35.15730000     -71.64130000
C      -47.48430000     -31.87600000     -70.70620000
H      -48.33610000     -31.63670000     -71.32990000
H      -47.88240000     -32.35480000     -69.72660000
C      -46.89190000     -33.04480000     -71.44100000
H      -46.06090000     -33.44470000     -70.84800000
H      -47.71700000     -33.76820000     -71.57630000
C      -44.77130000     -35.54680000     -71.92860000
H      -45.80930000     -35.42240000     -71.42260000
H      -44.70020000     -36.58880000     -72.27080000
C      -44.65160000     -34.74590000     -73.22510000
C      -43.94900000     -35.22530000     -74.35440000
C      -45.41610000     -33.58210000     -73.53540000
H      -43.15710000     -35.99800000     -74.25040000
C      -45.12700000     -33.17200000     -74.83130000
C      -46.31730000     -32.73400000     -72.81390000
C      -46.63630000     -31.64960000     -73.61950000
S      -44.01970000     -34.18620000     -75.68390000
S      -45.83370000     -31.61960000     -75.18980000
H      -47.31030000     -30.84390000     -73.16470000
