40
Properties=species:S:1:pos:R:3 #=T CELL(abcABC):=T 1.889726e+02=T 90.00000=T Traj:=T positionsangstrom=T Step:=T 0=T Bead:=T pbc="F F F"
C      -45.00170000     -30.73260000     -69.21060000
C      -46.05650000     -30.49510000     -70.17350000
C      -45.74150000     -30.19890000     -71.45880000
C      -44.43470000     -30.36270000     -71.90200000
C      -43.38270000     -30.48880000     -70.98560000
C      -43.63340000     -30.66530000     -69.61960000
H      -45.33270000     -31.12040000     -68.25000000
H      -46.59360000     -30.11260000     -72.11300000
H      -42.30340000     -30.53010000     -71.25240000
H      -42.89830000     -31.07080000     -68.90260000
C      -44.19230000     -30.19180000     -73.38100000
H      -43.11510000     -30.47310000     -73.54590000
H      -44.35680000     -29.12320000     -73.68930000
C      -47.55090000     -30.62530000     -69.71650000
H      -47.53250000     -30.74230000     -68.66460000
H      -48.13240000     -29.74140000     -70.09550000
S      -45.47520000     -31.10490000     -74.41380000
S      -48.29480000     -32.19900000     -70.46170000
C      -44.91370000     -32.86270000     -74.05200000
H      -45.32330000     -33.46100000     -74.94640000
H      -43.75900000     -32.83250000     -74.18880000
C      -47.31560000     -33.60440000     -69.82810000
H      -47.58700000     -33.83470000     -68.79970000
H      -46.23010000     -33.44370000     -69.87690000
C      -47.60490000     -34.85620000     -70.69030000
H      -48.54700000     -35.30010000     -70.37830000
H      -47.72670000     -34.60740000     -71.79150000
C      -45.36140000     -33.36570000     -72.70830000
H      -46.42990000     -33.41740000     -72.54650000
H      -45.16370000     -32.52670000     -71.89840000
C      -44.61280000     -34.67620000     -72.25310000
C      -43.28690000     -34.86100000     -72.53870000
C      -45.19030000     -35.63270000     -71.35260000
H      -42.62930000     -34.26730000     -73.12230000
C      -44.22780000     -36.53940000     -70.93100000
C      -46.41280000     -35.77840000     -70.57230000
C      -46.36960000     -36.80790000     -69.66030000
S      -42.65800000     -36.25010000     -71.57670000
S      -44.72820000     -37.55470000     -69.63590000
H      -47.02520000     -37.13060000     -68.90260000
