40
Properties=species:S:1:pos:R:3 #=T CELL(abcABC):=T 1.889726e+02=T 90.00000=T Traj:=T positionsangstrom=T Step:=T 0=T Bead:=T pbc="F F F"
C      -45.05960000     -31.34020000     -69.48910000
C      -43.85620000     -31.75750000     -70.12030000
C      -43.51000000     -33.10280000     -70.00040000
C      -44.35550000     -33.99400000     -69.26760000
C      -45.60940000     -33.61080000     -68.74150000
C      -45.92130000     -32.23330000     -68.78650000
H      -45.35140000     -30.28960000     -69.41140000
H      -42.62630000     -33.49110000     -70.36500000
H      -46.22650000     -34.28250000     -68.16640000
H      -46.85750000     -31.93530000     -68.29880000
C      -43.73280000     -35.33310000     -68.95540000
H      -44.19690000     -35.65600000     -67.98610000
H      -42.66020000     -35.24010000     -68.82780000
C      -42.94060000     -30.72050000     -70.87870000
H      -42.81100000     -29.87780000     -70.15250000
H      -41.88980000     -31.09680000     -70.94780000
S      -44.09610000     -36.82040000     -69.98050000
S      -43.68970000     -30.03110000     -72.42090000
C      -43.71010000     -36.39640000     -71.72500000
H      -42.95300000     -35.56340000     -71.72580000
H      -43.23380000     -37.35370000     -72.03640000
C      -43.50850000     -31.34650000     -73.75900000
H      -42.47800000     -31.51720000     -73.94120000
H      -43.88130000     -30.99810000     -74.71050000
C      -44.18350000     -32.77050000     -73.44140000
H      -44.11930000     -33.25680000     -74.41760000
H      -43.67130000     -33.38830000     -72.77610000
C      -44.74360000     -35.92200000     -72.67880000
H      -45.23050000     -36.81090000     -73.13820000
H      -44.25850000     -35.31490000     -73.42100000
C      -45.93120000     -35.11840000     -72.10240000
C      -46.94450000     -35.79830000     -71.44340000
C      -46.28460000     -33.78610000     -72.38260000
H      -46.63860000     -36.80560000     -70.98200000
C      -47.47860000     -33.39270000     -71.92850000
C      -45.62590000     -32.72540000     -73.03740000
C      -46.44310000     -31.63510000     -73.10900000
S      -48.28330000     -34.77050000     -71.06440000
S      -47.93140000     -31.77690000     -72.26450000
H      -46.06390000     -30.70460000     -73.35360000
