40
Properties=species:S:1:pos:R:3 #=T CELL(abcABC):=T 1.889726e+02=T 90.00000=T Traj:=T positionsangstrom=T Step:=T 0=T Bead:=T pbc="F F F"
C      -45.10260000     -30.81790000     -69.17540000
C      -46.16980000     -30.65260000     -69.99370000
C      -45.94160000     -30.45210000     -71.43340000
C      -44.61750000     -30.43520000     -71.81130000
C      -43.51700000     -30.50350000     -70.95080000
C      -43.78630000     -30.74550000     -69.64800000
H      -45.25950000     -31.15800000     -68.15510000
H      -46.77930000     -30.47210000     -72.13740000
H      -42.54550000     -30.61160000     -71.37800000
H      -43.00910000     -30.99740000     -68.87690000
C      -44.35230000     -30.24890000     -73.33410000
H      -43.29030000     -30.15800000     -73.67960000
H      -44.61630000     -29.19930000     -73.59470000
C      -47.56550000     -30.77830000     -69.56180000
H      -47.76420000     -31.00450000     -68.50680000
H      -48.12770000     -29.85800000     -69.66480000
S      -45.28990000     -31.29250000     -74.55620000
S      -48.48760000     -31.99950000     -70.62630000
C      -44.61680000     -32.92510000     -74.18770000
H      -44.62850000     -33.58380000     -75.12250000
H      -43.58990000     -32.79390000     -73.78320000
C      -47.42270000     -33.43050000     -70.01890000
H      -47.63170000     -33.55620000     -68.91870000
H      -46.39000000     -33.05090000     -70.04330000
C      -47.53960000     -34.73500000     -70.71790000
H      -48.42860000     -35.24880000     -70.27400000
H      -47.76110000     -34.69530000     -71.71570000
C      -45.44540000     -33.75100000     -73.10940000
H      -46.20800000     -34.37250000     -73.67750000
H      -45.99520000     -33.12860000     -72.49220000
C      -44.57060000     -34.72720000     -72.30650000
C      -43.26800000     -35.06500000     -72.62320000
C      -45.04450000     -35.44260000     -71.10900000
H      -42.66910000     -34.77020000     -73.47150000
C      -44.03040000     -36.27770000     -70.65120000
C      -46.28870000     -35.56280000     -70.44050000
C      -46.29740000     -36.66590000     -69.64360000
S      -42.52460000     -36.17470000     -71.47740000
S      -44.71100000     -37.40130000     -69.49920000
H      -47.11740000     -37.10830000     -69.00200000
