40
Properties=species:S:1:pos:R:3 #=T CELL(abcABC):=T 1.889726e+02=T 90.00000=T Traj:=T positionsangstrom=T Step:=T 0=T Bead:=T pbc="F F F"
C      -44.05670000     -30.68280000     -69.17230000
C      -43.33160000     -31.22370000     -70.21860000
C      -42.98570000     -32.65860000     -70.21420000
C      -43.28900000     -33.41490000     -69.07040000
C      -43.96230000     -32.80060000     -68.02100000
C      -44.47450000     -31.54300000     -68.15860000
H      -44.33370000     -29.61690000     -69.19640000
H      -42.53390000     -33.17190000     -71.05380000
H      -44.22370000     -33.33220000     -67.04690000
H      -45.08750000     -31.25470000     -67.26510000
C      -42.92850000     -34.91280000     -69.07600000
H      -42.74600000     -35.21980000     -68.03350000
H      -41.94050000     -35.01340000     -69.55540000
C      -43.01110000     -30.45820000     -71.46660000
H      -42.82330000     -29.37580000     -71.22860000
H      -42.16860000     -30.79500000     -72.18670000
S      -43.88870000     -36.19290000     -70.03150000
S      -44.45840000     -30.28970000     -72.57870000
C      -43.49610000     -35.77040000     -71.80900000
H      -43.08020000     -34.73330000     -71.79770000
H      -42.64820000     -36.34500000     -72.16280000
C      -44.37700000     -31.43500000     -74.00720000
H      -43.36330000     -31.34000000     -74.44340000
H      -45.06690000     -30.97580000     -74.75150000
C      -44.87890000     -32.91430000     -73.82870000
H      -44.84280000     -33.40420000     -74.78670000
H      -44.09370000     -33.49760000     -73.21380000
C      -44.70430000     -35.97010000     -72.70780000
H      -44.81400000     -37.05250000     -72.85650000
H      -44.52760000     -35.55300000     -73.68900000
C      -46.07500000     -35.46200000     -72.14950000
C      -46.88620000     -36.21450000     -71.29850000
C      -46.67260000     -34.22130000     -72.46790000
H      -46.70810000     -37.18690000     -70.84270000
C      -47.89330000     -34.07130000     -71.87050000
C      -46.20760000     -33.00670000     -73.09780000
C      -47.17600000     -32.00380000     -73.12500000
S      -48.45000000     -35.43530000     -70.91850000
S      -48.59020000     -32.45920000     -72.13990000
H      -46.92790000     -31.04310000     -73.55660000
