40
Properties=species:S:1:pos:R:3 #=T CELL(abcABC):=T 1.889726e+02=T 90.00000=T Traj:=T positionsangstrom=T Step:=T 0=T Bead:=T pbc="F F F"
C      -44.35960000     -31.02200000     -69.58610000
C      -43.24200000     -31.41050000     -70.38030000
C      -42.63610000     -32.63590000     -70.08360000
C      -43.16220000     -33.52110000     -69.16550000
C      -44.34400000     -33.13200000     -68.42560000
C      -44.89030000     -31.88240000     -68.68800000
H      -44.88030000     -30.10130000     -69.72480000
H      -41.77350000     -32.99430000     -70.63030000
H      -44.78060000     -33.82500000     -67.66870000
H      -45.73480000     -31.60570000     -68.05590000
C      -42.61590000     -34.86720000     -68.96870000
H      -42.25020000     -35.27580000     -67.99440000
H      -41.66850000     -34.90600000     -69.53830000
C      -42.82300000     -30.49360000     -71.50350000
H      -42.41430000     -29.54540000     -71.14260000
H      -42.14380000     -30.96630000     -72.19840000
S      -43.75290000     -36.04950000     -69.80100000
S      -44.22140000     -29.90980000     -72.58400000
C      -43.56950000     -35.51410000     -71.55400000
H      -43.44370000     -34.46900000     -71.75250000
H      -42.65110000     -35.87370000     -71.94710000
C      -44.18680000     -31.29270000     -73.80040000
H      -43.24290000     -31.52400000     -74.16630000
H      -44.74570000     -30.94760000     -74.66390000
C      -44.72210000     -32.65960000     -73.29260000
H      -44.68470000     -33.34120000     -74.10390000
H      -43.93930000     -33.12390000     -72.61820000
C      -44.69740000     -36.09200000     -72.39430000
H      -44.77480000     -37.17750000     -72.22260000
H      -44.45800000     -35.95280000     -73.43930000
C      -46.14030000     -35.55070000     -72.18190000
C      -47.10740000     -36.38090000     -71.68230000
C      -46.71010000     -34.16180000     -72.34680000
H      -46.90680000     -37.38330000     -71.42020000
C      -48.07560000     -34.13620000     -71.99280000
C      -46.13210000     -32.86590000     -72.70600000
C      -47.10070000     -31.85640000     -72.62270000
S      -48.68250000     -35.64320000     -71.39710000
S      -48.70170000     -32.48070000     -72.08020000
H      -47.05800000     -30.77650000     -72.79880000
