40
Properties=species:S:1:pos:R:3 #=T CELL(abcABC):=T 1.889726e+02=T 90.00000=T Traj:=T positionsangstrom=T Step:=T 0=T Bead:=T pbc="F F F"
C      -45.90830000     -35.12510000     -74.91140000
C      -45.53370000     -33.81650000     -74.75080000
C      -46.45250000     -32.91510000     -74.10610000
C      -47.72780000     -33.28510000     -73.76960000
C      -48.13010000     -34.62620000     -74.04430000
C      -47.18640000     -35.49520000     -74.48150000
H      -45.17770000     -35.88810000     -75.33740000
H      -46.13200000     -31.85610000     -73.99270000
H      -49.02980000     -35.07060000     -73.64940000
H      -47.49060000     -36.50310000     -74.68220000
C      -48.59190000     -32.29390000     -73.18930000
H      -49.55180000     -32.28170000     -73.61570000
H      -48.23630000     -31.29360000     -73.30120000
C      -44.16430000     -33.30120000     -75.17490000
H      -43.85050000     -33.67220000     -76.16180000
H      -44.09140000     -32.22050000     -75.25940000
S      -49.08380000     -32.46890000     -71.40390000
S      -42.79930000     -33.98930000     -74.16850000
C      -47.66540000     -31.69830000     -70.61360000
H      -47.53610000     -30.72120000     -71.15180000
H      -48.05080000     -31.51630000     -69.65260000
C      -43.22070000     -33.54200000     -72.34840000
H      -43.95310000     -32.83210000     -72.51080000
H      -42.35350000     -33.14580000     -71.89510000
C      -43.79920000     -34.73520000     -71.46840000
H      -44.77220000     -35.01150000     -71.87960000
H      -43.11060000     -35.61230000     -71.71740000
C      -46.33590000     -32.52600000     -70.81390000
H      -45.81910000     -32.18610000     -71.68320000
H      -46.60570000     -33.59720000     -70.98450000
C      -45.47860000     -32.45320000     -69.58560000
C      -45.63090000     -31.49970000     -68.56660000
C      -44.42610000     -33.38060000     -69.27190000
H      -46.52240000     -30.98590000     -68.47420000
C      -43.85130000     -33.21010000     -67.99540000
C      -43.68680000     -34.37460000     -70.02770000
C      -42.71830000     -34.93990000     -69.24650000
S      -44.58190000     -31.85540000     -67.20620000
S      -42.62290000     -34.36130000     -67.60500000
H      -42.01380000     -35.59750000     -69.63820000
