40
Properties=species:S:1:pos:R:3 #=T CELL(abcABC):=T 1.889726e+02=T 90.00000=T Traj:=T positionsangstrom=T Step:=T 0=T Bead:=T pbc="F F F"
C      -44.15590000     -30.88470000     -69.18450000
C      -43.43250000     -31.40930000     -70.26740000
C      -42.94050000     -32.71780000     -70.24850000
C      -43.18000000     -33.55950000     -69.10600000
C      -44.03840000     -33.02240000     -68.13620000
C      -44.45130000     -31.71110000     -68.09400000
H      -44.70490000     -29.93860000     -69.21520000
H      -42.28990000     -33.09120000     -71.04500000
H      -44.40060000     -33.60690000     -67.29500000
H      -45.07460000     -31.43940000     -67.23280000
C      -42.63250000     -34.90890000     -69.02260000
H      -42.69000000     -35.10770000     -67.96230000
H      -41.56290000     -35.06780000     -69.27550000
C      -43.08770000     -30.64390000     -71.56260000
H      -42.54060000     -29.77630000     -71.24250000
H      -42.48620000     -31.31410000     -72.12190000
S      -43.78670000     -36.09400000     -69.86030000
S      -44.47190000     -30.08670000     -72.66400000
C      -43.53290000     -35.62950000     -71.62660000
H      -43.52760000     -34.54800000     -71.62770000
H      -42.62220000     -35.94450000     -72.07950000
C      -44.28680000     -31.31610000     -73.99640000
H      -43.24480000     -31.35310000     -74.32830000
H      -44.88800000     -30.99190000     -74.82250000
C      -44.77720000     -32.72790000     -73.61310000
H      -44.78490000     -33.39590000     -74.51670000
H      -44.08600000     -33.31390000     -73.01300000
C      -44.72650000     -36.02290000     -72.54010000
H      -44.74900000     -37.08050000     -72.48580000
H      -44.46840000     -35.76550000     -73.59670000
C      -46.09130000     -35.51200000     -72.19680000
C      -47.03040000     -36.29180000     -71.53850000
C      -46.58330000     -34.11530000     -72.32750000
H      -46.82510000     -37.28550000     -71.08710000
C      -47.89430000     -34.00840000     -71.87340000
C      -46.12760000     -32.85070000     -72.96520000
C      -47.18820000     -31.93580000     -72.96880000
S      -48.54640000     -35.44630000     -71.19490000
S      -48.67650000     -32.52700000     -72.17610000
H      -46.95370000     -30.97760000     -73.36550000
