40
Properties=species:S:1:pos:R:3 #=T CELL(abcABC):=T 1.889726e+02=T 90.00000=T Traj:=T positionsangstrom=T Step:=T 0=T Bead:=T pbc="F F F"
C      -44.84510000     -31.28670000     -68.69750000
C      -46.01480000     -30.87520000     -69.35940000
C      -45.86720000     -30.31550000     -70.61910000
C      -44.59750000     -30.12180000     -71.27550000
C      -43.46350000     -30.58960000     -70.61090000
C      -43.62580000     -31.05280000     -69.29850000
H      -44.89940000     -31.63630000     -67.70580000
H      -46.81670000     -30.12660000     -71.22100000
H      -42.46700000     -30.50970000     -71.02470000
H      -42.66100000     -31.39290000     -68.78120000
C      -44.58900000     -29.58650000     -72.71040000
H      -43.59150000     -29.70990000     -73.08500000
H      -44.93850000     -28.53470000     -72.64580000
C      -47.35620000     -31.15320000     -68.76160000
H      -47.33720000     -31.40620000     -67.65500000
H      -47.97430000     -30.23460000     -68.85900000
S      -45.64590000     -30.65850000     -73.83090000
S      -48.41340000     -32.41860000     -69.66810000
C      -44.60350000     -32.26040000     -73.90740000
H      -44.58870000     -32.75850000     -74.88990000
H      -43.61490000     -31.97760000     -73.70300000
C      -47.05660000     -33.69920000     -69.88530000
H      -46.93120000     -34.18190000     -68.92780000
H      -46.20010000     -33.15510000     -70.24240000
C      -47.47860000     -34.73810000     -70.94200000
H      -48.36200000     -35.27170000     -70.70290000
H      -47.70190000     -34.13570000     -71.82980000
C      -45.31240000     -33.15100000     -72.94210000
H      -46.23860000     -33.43530000     -73.36620000
H      -45.49490000     -32.63020000     -71.99880000
C      -44.47780000     -34.43320000     -72.57180000
C      -43.21670000     -34.69080000     -73.02250000
C      -45.06510000     -35.50740000     -71.78420000
H      -42.64240000     -33.93990000     -73.52390000
C      -44.14810000     -36.52760000     -71.68220000
C      -46.35200000     -35.71390000     -71.09830000
C      -46.38050000     -36.98390000     -70.56970000
S      -42.57740000     -36.20350000     -72.40690000
S      -44.87180000     -37.88960000     -70.76110000
H      -47.01390000     -37.43280000     -69.82750000
