40
Properties=species:S:1:pos:R:3 #=T CELL(abcABC):=T 1.889726e+02=T 90.00000=T Traj:=T positionsangstrom=T Step:=T 0=T Bead:=T pbc="F F F"
C      -44.18880000     -31.07950000     -69.60340000
C      -43.41950000     -31.56890000     -70.68050000
C      -42.88720000     -32.87660000     -70.46450000
C      -43.02990000     -33.52440000     -69.19370000
C      -43.90570000     -33.00670000     -68.25170000
C      -44.43670000     -31.74680000     -68.43260000
H      -44.60740000     -30.05400000     -69.78560000
H      -42.36920000     -33.29640000     -71.29360000
H      -44.12060000     -33.64450000     -67.46490000
H      -45.15110000     -31.30150000     -67.67890000
C      -42.54780000     -34.92760000     -69.04910000
H      -42.64050000     -35.17700000     -68.00160000
H      -41.49910000     -35.04690000     -69.46730000
C      -43.11260000     -30.66130000     -71.83440000
H      -42.61070000     -29.79010000     -71.46610000
H      -42.40200000     -31.17810000     -72.47450000
S      -43.77350000     -36.20580000     -69.77590000
S      -44.53150000     -30.25290000     -72.97630000
C      -43.62900000     -36.14950000     -71.54720000
H      -43.12410000     -35.18300000     -71.84130000
H      -43.06060000     -37.00830000     -71.91500000
C      -44.42010000     -31.49920000     -74.20310000
H      -43.42660000     -31.59360000     -74.51950000
H      -45.06250000     -31.10730000     -75.04100000
C      -44.96950000     -32.90080000     -73.85760000
H      -44.95350000     -33.54960000     -74.76960000
H      -44.26240000     -33.27470000     -73.03580000
C      -44.93110000     -36.11310000     -72.36350000
H      -45.31240000     -37.15670000     -72.41630000
H      -44.59320000     -35.97820000     -73.43950000
C      -46.11730000     -35.28110000     -71.91240000
C      -46.85330000     -35.96950000     -70.93790000
C      -46.64820000     -34.02290000     -72.26430000
H      -46.69710000     -37.00170000     -70.59050000
C      -47.84620000     -33.76760000     -71.55660000
C      -46.32760000     -32.88420000     -73.12110000
C      -47.27680000     -31.86780000     -73.10190000
S      -48.32350000     -35.14000000     -70.62420000
S      -48.67430000     -32.26720000     -72.03020000
H      -47.04630000     -30.92010000     -73.46520000
