40
Properties=species:S:1:pos:R:3 #=T CELL(abcABC):=T 1.889726e+02=T 90.00000=T Traj:=T positionsangstrom=T Step:=T 0=T Bead:=T pbc="F F F"
C      -44.50980000     -31.22100000     -70.40800000
C      -43.29620000     -31.56920000     -71.00280000
C      -42.47900000     -32.56110000     -70.49720000
C      -43.01080000     -33.34110000     -69.48260000
C      -44.28940000     -33.14600000     -68.99110000
C      -45.00590000     -31.97490000     -69.35180000
H      -45.17410000     -30.36790000     -70.72540000
H      -41.50350000     -32.83320000     -70.87810000
H      -44.54700000     -33.75710000     -68.15240000
H      -46.03750000     -31.73590000     -68.88000000
C      -42.29710000     -34.60580000     -69.13360000
H      -42.48100000     -34.74760000     -68.07600000
H      -41.18360000     -34.61650000     -69.33540000
C      -42.84350000     -30.82470000     -72.29510000
H      -42.37780000     -29.88990000     -72.03930000
H      -42.04120000     -31.48720000     -72.76300000
S      -43.18770000     -36.17530000     -69.81340000
S      -44.20500000     -30.47890000     -73.42710000
C      -43.76850000     -35.64310000     -71.49150000
H      -43.66940000     -34.56570000     -71.40400000
H      -43.09330000     -35.99760000     -72.24950000
C      -44.68450000     -32.02310000     -74.38700000
H      -43.80160000     -32.32740000     -74.96330000
H      -45.55130000     -31.69190000     -74.99020000
C      -45.09510000     -33.29400000     -73.59990000
H      -45.26880000     -34.10920000     -74.31560000
H      -44.20730000     -33.59470000     -73.05000000
C      -45.17960000     -36.08390000     -71.96200000
H      -45.35070000     -37.06160000     -71.57670000
H      -45.20500000     -36.06760000     -73.05210000
C      -46.33640000     -35.33520000     -71.35790000
C      -47.09900000     -35.84810000     -70.33600000
C      -46.79860000     -34.00560000     -71.75240000
H      -46.97480000     -36.72390000     -69.70600000
C      -48.03420000     -33.63300000     -71.21820000
C      -46.27370000     -33.07130000     -72.72450000
C      -47.18380000     -32.06800000     -72.95840000
S      -48.52730000     -34.88740000     -70.05400000
S      -48.68750000     -32.15790000     -71.86390000
H      -47.07390000     -31.19510000     -73.55680000
