40
Properties=species:S:1:pos:R:3 #=T CELL(abcABC):=T 1.889726e+02=T 90.00000=T Traj:=T positionsangstrom=T Step:=T 0=T Bead:=T pbc="F F F"
C      -44.19230000     -30.43480000     -71.42070000
C      -43.69220000     -31.38420000     -72.35490000
C      -42.87860000     -32.42860000     -71.93360000
C      -42.56280000     -32.46430000     -70.57660000
C      -42.92780000     -31.47620000     -69.65640000
C      -43.85880000     -30.56160000     -70.05810000
H      -44.91470000     -29.63870000     -71.69200000
H      -42.45990000     -33.14590000     -72.67060000
H      -42.69610000     -31.71330000     -68.61660000
H      -44.21080000     -29.89890000     -69.33290000
C      -41.75480000     -33.60270000     -70.05620000
H      -41.26710000     -33.41250000     -69.06270000
H      -40.92090000     -33.78740000     -70.73030000
C      -43.87680000     -31.17500000     -73.81870000
H      -43.50080000     -30.20080000     -74.15780000
H      -43.28520000     -31.96240000     -74.41220000
S      -42.70050000     -35.12100000     -69.69420000
S      -45.60760000     -31.27780000     -74.45000000
C      -43.59600000     -35.58970000     -71.34180000
H      -43.86160000     -34.71320000     -71.89680000
H      -42.96200000     -36.31090000     -71.84360000
C      -46.07370000     -33.13190000     -74.77780000
H      -45.43980000     -33.49250000     -75.56180000
H      -47.11170000     -33.07930000     -75.15960000
C      -45.97750000     -34.16900000     -73.60590000
H      -46.26190000     -35.11960000     -74.02640000
H      -44.89360000     -34.28950000     -73.44840000
C      -44.83570000     -36.36970000     -70.93140000
H      -44.59480000     -37.16040000     -70.24380000
H      -45.18370000     -36.83550000     -71.89260000
C      -45.96460000     -35.55180000     -70.39480000
C      -46.37250000     -35.67640000     -69.07330000
C      -46.69570000     -34.52080000     -71.08310000
H      -45.99820000     -36.34870000     -68.36890000
C      -47.74200000     -34.09770000     -70.29460000
C      -46.73360000     -33.83410000     -72.35650000
C      -47.71000000     -32.81930000     -72.39540000
S      -47.79970000     -34.81150000     -68.66960000
S      -48.71610000     -32.83470000     -70.94380000
H      -47.90760000     -32.12690000     -73.27300000
