40
Properties=species:S:1:pos:R:3 #=T CELL(abcABC):=T 1.889726e+02=T 90.00000=T Traj:=T positionsangstrom=T Step:=T 0=T Bead:=T pbc="F F F"
C      -44.21050000     -30.50760000     -71.40350000
C      -43.39190000     -31.17830000     -72.40000000
C      -42.52300000     -32.18120000     -71.93650000
C      -42.60050000     -32.58850000     -70.57340000
C      -43.45160000     -31.92230000     -69.65960000
C      -44.22210000     -30.83190000     -70.08270000
H      -44.78780000     -29.65090000     -71.73140000
H      -41.90980000     -32.71830000     -72.64170000
H      -43.53180000     -32.22820000     -68.61440000
H      -44.82450000     -30.23830000     -69.31260000
C      -41.78980000     -33.69850000     -70.06630000
H      -41.17640000     -33.32950000     -69.27200000
H      -41.11700000     -34.03180000     -70.82460000
C      -43.57810000     -30.83150000     -73.83760000
H      -43.61310000     -29.68160000     -73.89250000
H      -42.76970000     -31.20640000     -74.45030000
S      -42.82490000     -35.13360000     -69.50540000
S      -45.29870000     -31.20060000     -74.45210000
C      -43.50830000     -35.66210000     -71.06920000
H      -43.46900000     -34.73160000     -71.69020000
H      -42.84050000     -36.32100000     -71.62640000
C      -45.62180000     -33.02220000     -74.63860000
H      -44.93890000     -33.40260000     -75.39370000
H      -46.59470000     -33.07050000     -75.07040000
C      -45.52740000     -33.87340000     -73.39340000
H      -45.60700000     -34.91950000     -73.74840000
H      -44.54850000     -33.66780000     -72.90670000
C      -44.84250000     -36.36670000     -70.89520000
H      -44.70460000     -37.23200000     -70.19570000
H      -45.15960000     -36.89220000     -71.77370000
C      -46.04780000     -35.54300000     -70.37630000
C      -46.72630000     -35.89820000     -69.23250000
C      -46.77960000     -34.54030000     -71.15100000
H      -46.39490000     -36.62320000     -68.47880000
C      -47.89060000     -34.14900000     -70.38790000
C      -46.61450000     -33.69930000     -72.35310000
C      -47.54370000     -32.66530000     -72.37380000
S      -48.19380000     -34.98920000     -68.85660000
S      -48.77390000     -32.80990000     -71.10490000
H      -47.83900000     -32.01050000     -73.19690000
