40
Properties=species:S:1:pos:R:3 #=T CELL(abcABC):=T 1.889726e+02=T 90.00000=T Traj:=T positionsangstrom=T Step:=T 0=T Bead:=T pbc="F F F"
C      -45.57530000     -36.45270000     -73.79980000
C      -46.69810000     -35.65320000     -73.57360000
C      -46.69930000     -34.32190000     -74.05920000
C      -45.64420000     -33.76080000     -74.78580000
C      -44.45770000     -34.45940000     -74.79220000
C      -44.41870000     -35.76570000     -74.35530000
H      -45.43220000     -37.52980000     -73.46460000
H      -47.51450000     -33.66240000     -74.00570000
H      -43.59420000     -34.02830000     -75.32480000
H      -43.48190000     -36.29000000     -74.46540000
C      -45.81350000     -32.33310000     -75.32500000
H      -46.60380000     -32.25700000     -76.02610000
H      -44.88060000     -32.07690000     -75.83690000
C      -47.84740000     -36.20090000     -72.83140000
H      -48.67810000     -36.13930000     -73.56100000
H      -47.54880000     -37.26260000     -72.57860000
S      -46.07220000     -31.02490000     -73.91670000
S      -48.56940000     -35.20720000     -71.34850000
C      -44.89520000     -31.36080000     -72.53650000
H      -44.68130000     -32.42610000     -72.64380000
H      -44.01330000     -30.70580000     -72.52040000
C      -47.11940000     -35.02870000     -70.23940000
H      -46.93880000     -36.11950000     -69.90970000
H      -47.49960000     -34.51730000     -69.35270000
C      -45.79240000     -34.38280000     -70.64190000
H      -45.21240000     -35.08800000     -71.22660000
H      -45.94350000     -33.57640000     -71.31860000
C      -45.56830000     -31.05200000     -71.19990000
H      -46.39450000     -31.74870000     -71.13950000
H      -46.08360000     -30.07650000     -71.19490000
C      -44.62710000     -31.26810000     -70.01750000
C      -43.87180000     -30.30790000     -69.36530000
C      -44.48620000     -32.60460000     -69.32440000
H      -43.80770000     -29.23550000     -69.71680000
C      -43.59650000     -32.53840000     -68.25160000
C      -44.91540000     -33.96700000     -69.54590000
C      -44.30830000     -34.84060000     -68.72320000
S      -42.87640000     -30.97750000     -68.07110000
S      -43.17680000     -34.04180000     -67.50760000
H      -44.59830000     -35.82760000     -68.55170000
