40
Properties=species:S:1:pos:R:3 #=T CELL(abcABC):=T 1.889726e+02=T 90.00000=T Traj:=T positionsangstrom=T Step:=T 0=T Bead:=T pbc="F F F"
C      -45.14960000     -31.47940000     -68.67260000
C      -46.21180000     -30.83660000     -69.31620000
C      -46.00870000     -30.19490000     -70.47010000
C      -44.75050000     -30.17170000     -71.17540000
C      -43.71050000     -30.89470000     -70.55180000
C      -43.92280000     -31.47700000     -69.28470000
H      -45.30790000     -32.05700000     -67.74270000
H      -46.90920000     -29.78260000     -70.89700000
H      -42.73480000     -31.11710000     -70.94750000
H      -43.04000000     -31.90830000     -68.80370000
C      -44.81610000     -29.56200000     -72.52180000
H      -43.89410000     -29.29840000     -73.07370000
H      -45.44530000     -28.62930000     -72.40680000
C      -47.66590000     -31.01330000     -68.84870000
H      -47.68280000     -31.38970000     -67.81010000
H      -48.28280000     -30.06970000     -68.78960000
S      -45.57990000     -30.60600000     -73.89400000
S      -48.48910000     -32.39080000     -69.79640000
C      -44.42050000     -32.11690000     -73.64070000
H      -44.05660000     -32.35720000     -74.64980000
H      -43.47600000     -31.84960000     -73.03460000
C      -47.38050000     -33.93990000     -69.64080000
H      -47.78620000     -34.69230000     -68.98570000
H      -46.48360000     -33.49730000     -69.32120000
C      -47.29530000     -34.71100000     -70.96280000
H      -48.26060000     -35.24490000     -71.07710000
H      -47.36390000     -34.04340000     -71.77780000
C      -45.22040000     -33.16250000     -72.85100000
H      -46.03460000     -33.48960000     -73.40630000
H      -45.67500000     -32.79910000     -71.94340000
C      -44.35860000     -34.35660000     -72.60800000
C      -43.09290000     -34.60530000     -73.07500000
C      -44.86100000     -35.41880000     -71.75840000
H      -42.45210000     -33.82170000     -73.58800000
C      -43.98100000     -36.50390000     -71.71090000
C      -46.06740000     -35.64600000     -71.06850000
C      -46.08030000     -36.91400000     -70.53900000
S      -42.51430000     -36.15620000     -72.55460000
S      -44.64850000     -37.86820000     -70.86990000
H      -46.91810000     -37.37700000     -69.89800000
