40
Properties=species:S:1:pos:R:3 #=T CELL(abcABC):=T 1.889726e+02=T 90.00000=T Traj:=T positionsangstrom=T Step:=T 0=T Bead:=T pbc="F F F"
C      -44.38560000     -30.55540000     -70.71840000
C      -43.62800000     -31.38250000     -71.59960000
C      -43.02330000     -32.54800000     -71.06680000
C      -43.11920000     -32.83180000     -69.67630000
C      -44.02010000     -32.07120000     -68.88200000
C      -44.58870000     -30.93730000     -69.42130000
H      -44.96760000     -29.72340000     -71.12310000
H      -42.33310000     -33.18060000     -71.59090000
H      -44.14200000     -32.32060000     -67.85010000
H      -45.17590000     -30.29760000     -68.80160000
C      -42.47650000     -34.05300000     -69.21520000
H      -42.28620000     -33.96640000     -68.10380000
H      -41.42910000     -34.06010000     -69.59770000
C      -43.40580000     -31.20730000     -73.17520000
H      -42.69340000     -30.32780000     -73.26030000
H      -42.92990000     -32.09570000     -73.49410000
S      -43.37850000     -35.58630000     -69.50280000
S      -44.84350000     -30.84890000     -74.17520000
C      -43.55380000     -35.67690000     -71.29760000
H      -43.52090000     -34.70220000     -71.71690000
H      -42.70320000     -36.22670000     -71.72110000
C      -45.35270000     -32.45850000     -74.91210000
H      -44.73490000     -32.82500000     -75.76970000
H      -46.27280000     -32.11470000     -75.42850000
C      -45.52760000     -33.65900000     -73.92410000
H      -45.78270000     -34.50200000     -74.56900000
H      -44.58680000     -34.07140000     -73.41330000
C      -44.79530000     -36.32610000     -71.76900000
H      -44.79880000     -37.34920000     -71.35230000
H      -44.94650000     -36.46640000     -72.80690000
C      -46.00350000     -35.60700000     -71.15680000
C      -46.59130000     -36.07060000     -69.98920000
C      -46.59750000     -34.38830000     -71.57510000
H      -46.17880000     -36.83870000     -69.38040000
C      -47.55910000     -33.89150000     -70.73310000
C      -46.49810000     -33.58310000     -72.79110000
C      -47.29080000     -32.48260000     -72.73350000
S      -47.85850000     -34.97600000     -69.39770000
S      -48.39700000     -32.48120000     -71.33320000
H      -47.43580000     -31.75150000     -73.48580000
