40
Properties=species:S:1:pos:R:3 #=T CELL(abcABC):=T 1.889726e+02=T 90.00000=T Traj:=T positionsangstrom=T Step:=T 0=T Bead:=T pbc="F F F"
C      -45.09290000     -31.66950000     -68.84270000
C      -46.15710000     -31.04140000     -69.36730000
C      -46.04230000     -30.30870000     -70.55530000
C      -44.78640000     -30.20930000     -71.22770000
C      -43.72710000     -30.93990000     -70.66620000
C      -43.89140000     -31.74760000     -69.55580000
H      -45.18610000     -32.24750000     -67.93150000
H      -46.98540000     -29.87560000     -70.93240000
H      -42.73770000     -30.97560000     -71.13080000
H      -43.12470000     -32.40100000     -69.20720000
C      -44.59310000     -29.49100000     -72.54670000
H      -43.57080000     -29.43370000     -72.87740000
H      -44.88780000     -28.45480000     -72.59590000
C      -47.51920000     -31.27450000     -68.72320000
H      -47.46210000     -31.66270000     -67.73710000
H      -48.11340000     -30.41280000     -68.73220000
S      -45.48610000     -30.46920000     -73.82710000
S      -48.41960000     -32.41540000     -69.79920000
C      -44.62140000     -32.05310000     -73.81570000
H      -44.65180000     -32.45580000     -74.81200000
H      -43.64150000     -31.82650000     -73.46470000
C      -47.27330000     -33.82130000     -69.79230000
H      -47.33470000     -34.36690000     -68.84300000
H      -46.24990000     -33.39160000     -69.64110000
C      -47.41810000     -34.76390000     -70.96970000
H      -48.29160000     -35.38620000     -70.80990000
H      -47.53600000     -34.21750000     -71.95390000
C      -45.19520000     -33.07030000     -72.79600000
H      -46.16190000     -33.52680000     -73.26300000
H      -45.42600000     -32.53630000     -71.86750000
C      -44.37710000     -34.25770000     -72.55200000
C      -43.10550000     -34.47950000     -72.94250000
C      -44.93730000     -35.37070000     -71.79780000
H      -42.61690000     -33.89820000     -73.65290000
C      -44.07680000     -36.43480000     -71.60150000
C      -46.18090000     -35.65120000     -71.12060000
C      -46.20780000     -36.89660000     -70.50490000
S      -42.61030000     -36.12710000     -72.49550000
S      -44.65950000     -37.79980000     -70.69460000
H      -47.11920000     -37.34400000     -70.08020000
