40
Properties=species:S:1:pos:R:3 #=T CELL(abcABC):=T 1.889726e+02=T 90.00000=T Traj:=T positionsangstrom=T Step:=T 0=T Bead:=T pbc="F F F"
C      -44.99290000     -31.08990000     -68.77300000
C      -46.29330000     -31.03320000     -69.28220000
C      -46.54260000     -30.45090000     -70.50850000
C      -45.48890000     -30.00500000     -71.33540000
C      -44.15190000     -30.13040000     -70.82080000
C      -43.92840000     -30.53970000     -69.51430000
H      -44.82180000     -31.51460000     -67.77810000
H      -47.59200000     -30.35720000     -70.86750000
H      -43.28030000     -29.77310000     -71.41170000
H      -42.96340000     -30.55610000     -69.04940000
C      -45.75430000     -29.32860000     -72.64740000
H      -44.98330000     -28.62350000     -72.83530000
H      -46.68430000     -28.83640000     -72.75730000
C      -47.44110000     -31.62660000     -68.53380000
H      -47.11070000     -32.03310000     -67.67350000
H      -48.13690000     -30.87330000     -68.30300000
S      -45.79810000     -30.53930000     -74.14820000
S      -48.33130000     -32.94760000     -69.35450000
C      -44.73040000     -32.08840000     -73.82370000
H      -44.61540000     -32.41710000     -74.90840000
H      -43.75020000     -31.84480000     -73.42510000
C      -46.90080000     -34.03130000     -69.69940000
H      -46.59180000     -34.45840000     -68.74250000
H      -46.01910000     -33.43270000     -70.05540000
C      -47.21750000     -35.11950000     -70.69310000
H      -47.90750000     -35.88320000     -70.29750000
H      -47.64910000     -34.71080000     -71.60680000
C      -45.41400000     -33.13650000     -72.95330000
H      -46.39820000     -33.43970000     -73.44480000
H      -45.61220000     -32.57560000     -72.04320000
C      -44.46530000     -34.36890000     -72.64860000
C      -43.27930000     -34.58120000     -73.25540000
C      -44.82540000     -35.41950000     -71.71960000
H      -42.90790000     -33.99670000     -74.09560000
C      -43.77590000     -36.36700000     -71.74880000
C      -45.92530000     -35.93010000     -70.90410000
C      -45.57690000     -37.11720000     -70.25750000
S      -42.48670000     -36.09370000     -72.83220000
S      -43.93080000     -37.69810000     -70.60140000
H      -46.18300000     -37.53760000     -69.51050000
