40
Properties=species:S:1:pos:R:3 #=T CELL(abcABC):=T 1.889726e+02=T 90.00000=T Traj:=T positionsangstrom=T Step:=T 0=T Bead:=T pbc="F F F"
C      -45.20520000     -30.51880000     -68.62220000
C      -46.42290000     -30.78980000     -69.36270000
C      -46.50710000     -30.50110000     -70.74280000
C      -45.46780000     -29.82830000     -71.35620000
C      -44.26580000     -29.67940000     -70.69230000
C      -44.12110000     -30.13950000     -69.35820000
H      -45.07520000     -30.74750000     -67.56650000
H      -47.45510000     -30.56300000     -71.16350000
H      -43.43020000     -29.36050000     -71.26650000
H      -43.18470000     -29.85040000     -68.82970000
C      -45.50330000     -29.38670000     -72.72580000
H      -44.64910000     -28.95410000     -73.17420000
H      -46.31540000     -28.66000000     -72.97330000
C      -47.59160000     -31.43710000     -68.64680000
H      -47.24580000     -31.78760000     -67.65370000
H      -48.35960000     -30.68600000     -68.49590000
S      -46.06070000     -30.82760000     -73.80080000
S      -48.41890000     -32.88700000     -69.43500000
C      -44.60340000     -32.03070000     -73.65160000
H      -44.26100000     -32.45240000     -74.59130000
H      -43.83210000     -31.52510000     -73.05460000
C      -46.98450000     -34.12980000     -69.38230000
H      -47.15510000     -34.70820000     -68.47740000
H      -46.04220000     -33.55710000     -69.33460000
C      -47.01170000     -35.01940000     -70.66050000
H      -47.91540000     -35.68020000     -70.66770000
H      -47.20820000     -34.41530000     -71.57670000
C      -45.16430000     -33.23920000     -72.94060000
H      -46.01750000     -33.62720000     -73.50480000
H      -45.60200000     -33.00140000     -71.93020000
C      -44.20470000     -34.40520000     -72.61910000
C      -43.01330000     -34.64160000     -73.26280000
C      -44.62440000     -35.55330000     -71.78780000
H      -42.50850000     -33.93460000     -73.92680000
C      -43.64620000     -36.58570000     -71.82330000
C      -45.72280000     -35.83030000     -70.87350000
C      -45.58950000     -37.10220000     -70.29900000
S      -42.37580000     -36.26720000     -73.04190000
S      -44.10830000     -37.92970000     -70.80560000
H      -46.26350000     -37.64530000     -69.65020000
