40
Properties=species:S:1:pos:R:3 #=T CELL(abcABC):=T 1.889726e+02=T 90.00000=T Traj:=T positionsangstrom=T Step:=T 0=T Bead:=T pbc="F F F"
C      -45.72200000     -32.65360000     -75.14790000
C      -46.02610000     -31.46760000     -74.38230000
C      -47.10510000     -31.54990000     -73.47410000
C      -47.74140000     -32.72910000     -73.10500000
C      -47.25870000     -33.91500000     -73.69960000
C      -46.29740000     -33.87920000     -74.72190000
H      -44.95900000     -32.61090000     -75.91130000
H      -47.55700000     -30.63970000     -73.06300000
H      -47.75230000     -34.83180000     -73.50270000
H      -45.78610000     -34.79430000     -75.09230000
C      -48.87320000     -32.74030000     -72.23380000
H      -49.81950000     -32.89070000     -72.77990000
H      -49.06540000     -31.85700000     -71.64720000
C      -45.22760000     -30.23770000     -74.33670000
H      -44.84150000     -29.92070000     -75.31540000
H      -45.72570000     -29.40710000     -73.86590000
S      -49.10160000     -34.10480000     -70.91270000
S      -43.70130000     -30.53380000     -73.33080000
C      -47.41870000     -34.19030000     -70.08950000
H      -47.04970000     -33.19430000     -70.08610000
H      -47.69810000     -34.43330000     -69.03060000
C      -44.32840000     -30.81490000     -71.59480000
H      -45.28630000     -30.35430000     -71.54590000
H      -43.72400000     -30.40890000     -70.77870000
C      -44.75980000     -32.29160000     -71.30780000
H      -45.72320000     -32.28870000     -70.77080000
H      -44.84920000     -32.85610000     -72.23900000
C      -46.59870000     -35.28570000     -70.71430000
H      -46.54140000     -35.26990000     -71.80330000
H      -47.16030000     -36.19570000     -70.61150000
C      -45.26170000     -35.41360000     -70.00110000
C      -44.96680000     -36.58210000     -69.30450000
C      -44.28630000     -34.39830000     -69.87290000
H      -45.52570000     -37.45170000     -69.23160000
C      -43.33370000     -34.79650000     -68.88790000
C      -43.91330000     -33.10270000     -70.35010000
C      -42.74100000     -32.55980000     -69.83490000
S      -43.52560000     -36.37750000     -68.31420000
S      -42.03200000     -33.66780000     -68.57520000
H      -42.26450000     -31.60630000     -70.04660000
