40
Properties=species:S:1:pos:R:3 #=T CELL(abcABC):=T 1.889726e+02=T 90.00000=T Traj:=T positionsangstrom=T Step:=T 0=T Bead:=T pbc="F F F"
C      -44.92140000     -30.94750000     -72.42810000
C      -44.34100000     -31.92940000     -73.22790000
C      -43.36330000     -32.79680000     -72.70350000
C      -43.06450000     -32.79220000     -71.33230000
C      -43.61180000     -31.75780000     -70.51890000
C      -44.50020000     -30.84190000     -71.08770000
H      -45.49140000     -30.28610000     -73.04480000
H      -43.02520000     -33.59830000     -73.29920000
H      -43.30260000     -31.64500000     -69.48780000
H      -44.99420000     -30.13340000     -70.43780000
C      -41.97260000     -33.63070000     -70.69460000
H      -41.35100000     -33.04890000     -70.03410000
H      -41.28050000     -34.01910000     -71.46910000
C      -44.64910000     -32.20220000     -74.61980000
H      -44.26890000     -31.44170000     -75.32250000
H      -44.25560000     -33.17870000     -75.07900000
S      -42.43880000     -35.12390000     -69.74140000
S      -46.51080000     -32.35680000     -74.96060000
C      -43.45460000     -36.09430000     -71.00460000
H      -43.44640000     -35.47180000     -71.85210000
H      -42.94830000     -36.97450000     -71.36000000
C      -47.05820000     -34.12100000     -74.46470000
H      -46.57750000     -34.84080000     -75.18360000
H      -48.15320000     -34.15330000     -74.66030000
C      -46.61200000     -34.60840000     -73.10900000
H      -47.08420000     -35.62860000     -72.95410000
H      -45.57760000     -34.67480000     -73.04230000
C      -44.87850000     -36.32080000     -70.56710000
H      -44.86190000     -37.12590000     -69.82130000
H      -45.31860000     -36.67230000     -71.49670000
C      -45.52350000     -35.10340000     -69.96910000
C      -45.28280000     -34.83170000     -68.65640000
C      -46.42160000     -34.11180000     -70.46960000
H      -44.61840000     -35.39980000     -67.98900000
C      -46.79720000     -33.16400000     -69.56640000
C      -47.02860000     -33.90420000     -71.79180000
C      -47.85260000     -32.77660000     -71.84090000
S      -46.30180000     -33.42670000     -67.95280000
S      -47.88010000     -31.91160000     -70.29380000
H      -48.42210000     -32.40340000     -72.68400000
