40
Properties=species:S:1:pos:R:3 #=T CELL(abcABC):=T 1.889726e+02=T 90.00000=T Traj:=T positionsangstrom=T Step:=T 0=T Bead:=T pbc="F F F"
C      -45.34430000     -30.03290000     -68.75230000
C      -46.38730000     -30.58950000     -69.50520000
C      -46.31340000     -30.52140000     -70.87660000
C      -45.18770000     -29.88410000     -71.42680000
C      -44.17020000     -29.34670000     -70.64560000
C      -44.26600000     -29.39530000     -69.30550000
H      -45.40870000     -30.19460000     -67.71440000
H      -47.13230000     -30.97580000     -71.50030000
H      -43.39490000     -28.81180000     -71.17830000
H      -43.51560000     -28.90730000     -68.67740000
C      -44.94700000     -29.72920000     -72.92060000
H      -43.91860000     -29.71590000     -73.20860000
H      -45.23610000     -28.76930000     -73.28450000
C      -47.62120000     -31.04710000     -68.77790000
H      -47.44030000     -30.98990000     -67.79400000
H      -48.45480000     -30.38380000     -69.06770000
S      -45.88160000     -30.89480000     -73.96890000
S      -48.20590000     -32.66630000     -69.33800000
C      -44.77180000     -32.37570000     -73.71800000
H      -44.85620000     -33.05980000     -74.60030000
H      -43.78210000     -32.03230000     -73.53010000
C      -46.78970000     -33.99950000     -69.39070000
H      -46.70240000     -34.47130000     -68.38840000
H      -45.89380000     -33.43010000     -69.54240000
C      -47.03430000     -35.13710000     -70.38510000
H      -47.81390000     -35.81190000     -69.96670000
H      -47.46900000     -34.76040000     -71.34410000
C      -45.15810000     -33.27830000     -72.55900000
H      -46.20350000     -33.51920000     -72.66920000
H      -45.22750000     -32.76760000     -71.51210000
C      -44.39230000     -34.56400000     -72.51810000
C      -43.22560000     -34.80350000     -73.21320000
C      -44.79880000     -35.73090000     -71.69510000
H      -42.54310000     -34.07470000     -73.74990000
C      -43.93570000     -36.78100000     -71.94710000
C      -45.86620000     -36.03690000     -70.72870000
C      -45.67060000     -37.30200000     -70.14760000
S      -42.44550000     -36.32540000     -72.93510000
S      -44.38020000     -38.14100000     -70.96680000
H      -46.38220000     -37.91720000     -69.62670000
