40
Properties=species:S:1:pos:R:3 #=T CELL(abcABC):=T 1.889726e+02=T 90.00000=T Traj:=T positionsangstrom=T Step:=T 0=T Bead:=T pbc="F F F"
C      -44.81310000     -31.26160000     -72.59170000
C      -44.35760000     -32.29070000     -73.41150000
C      -43.19410000     -33.04370000     -73.00760000
C      -42.51900000     -32.80790000     -71.80120000
C      -43.03110000     -31.84030000     -70.93500000
C      -44.11920000     -31.05360000     -71.34500000
H      -45.74370000     -30.71360000     -72.77130000
H      -42.81330000     -33.84210000     -73.66310000
H      -42.67090000     -31.61110000     -69.95070000
H      -44.55880000     -30.32550000     -70.70360000
C      -41.53410000     -33.87340000     -71.31940000
H      -40.63380000     -33.49190000     -70.71930000
H      -41.07090000     -34.37880000     -72.20440000
C      -45.01690000     -32.57800000     -74.72990000
H      -44.66240000     -31.80210000     -75.40630000
H      -44.64770000     -33.61090000     -75.08080000
S      -42.28540000     -35.09050000     -70.08660000
S      -46.85150000     -32.52300000     -74.62090000
C      -43.59800000     -35.63200000     -71.19230000
H      -43.81940000     -34.73910000     -71.83310000
H      -43.27030000     -36.56520000     -71.78330000
C      -47.25180000     -34.30440000     -74.16960000
H      -46.68570000     -34.92040000     -74.92750000
H      -48.31130000     -34.47510000     -74.40740000
C      -46.87050000     -34.74220000     -72.79460000
H      -47.37890000     -35.74800000     -72.65290000
H      -45.86780000     -35.12510000     -72.76690000
C      -44.82890000     -35.97660000     -70.39240000
H      -44.58510000     -36.73580000     -69.64600000
H      -45.64860000     -36.28300000     -71.04970000
C      -45.38370000     -34.72780000     -69.72590000
C      -45.16830000     -34.39540000     -68.44090000
C      -46.40470000     -33.96650000     -70.36080000
H      -44.38630000     -34.83610000     -67.84040000
C      -46.87530000     -33.01570000     -69.46520000
C      -47.15500000     -33.88240000     -71.59560000
C      -48.15000000     -32.96660000     -71.55600000
S      -46.17590000     -32.96370000     -67.89340000
S      -48.19510000     -32.04070000     -70.03950000
H      -48.91140000     -32.84010000     -72.29250000
