40
Properties=species:S:1:pos:R:3 #=T CELL(abcABC):=T 1.889726e+02=T 90.00000=T Traj:=T positionsangstrom=T Step:=T 0=T Bead:=T pbc="F F F"
C      -45.11020000     -31.44070000     -72.42320000
C      -44.65460000     -32.16730000     -73.56200000
C      -43.50620000     -33.00000000     -73.41590000
C      -42.81640000     -33.01550000     -72.19600000
C      -43.23430000     -32.24640000     -71.11510000
C      -44.43380000     -31.45780000     -71.19400000
H      -46.01880000     -30.81210000     -72.48850000
H      -43.04400000     -33.58020000     -74.24280000
H      -42.82080000     -32.33470000     -70.14190000
H      -44.70980000     -30.83570000     -70.37880000
C      -41.71940000     -34.04430000     -71.98960000
H      -40.88470000     -33.48320000     -71.46480000
H      -41.37330000     -34.49310000     -72.96040000
C      -45.51220000     -32.37330000     -74.84330000
H      -45.53860000     -31.53910000     -75.50700000
H      -45.20680000     -33.22660000     -75.42560000
S      -42.20710000     -35.37040000     -70.79440000
S      -47.31040000     -32.56100000     -74.50600000
C      -43.79230000     -36.09540000     -71.29960000
H      -44.16740000     -35.74010000     -72.21670000
H      -43.58750000     -37.15490000     -71.43330000
C      -47.49480000     -34.34230000     -73.82370000
H      -47.12110000     -35.04210000     -74.59660000
H      -48.55030000     -34.36730000     -73.67700000
C      -46.76540000     -34.57240000     -72.47940000
H      -47.00990000     -35.64900000     -72.30340000
H      -45.69210000     -34.50200000     -72.74440000
C      -44.83040000     -36.07330000     -70.14610000
H      -44.47990000     -36.68200000     -69.29750000
H      -45.71570000     -36.63160000     -70.44680000
C      -45.21060000     -34.73970000     -69.60960000
C      -44.74620000     -34.31400000     -68.38490000
C      -46.25900000     -33.80490000     -70.09990000
H      -44.26020000     -34.97290000     -67.70030000
C      -46.63420000     -32.81130000     -69.13600000
C      -47.02630000     -33.66770000     -71.31250000
C      -47.82990000     -32.51560000     -71.30750000
S      -45.62110000     -32.92280000     -67.73700000
S      -47.78630000     -31.60080000     -69.80590000
H      -48.48410000     -32.32730000     -72.13660000
