40
Properties=species:S:1:pos:R:3 #=T CELL(abcABC):=T 1.889726e+02=T 90.00000=T Traj:=T positionsangstrom=T Step:=T 0=T Bead:=T pbc="F F F"
C      -45.16950000     -31.06220000     -72.91330000
C      -45.01550000     -32.30740000     -73.55200000
C      -43.95200000     -33.22700000     -73.30430000
C      -42.98060000     -32.88730000     -72.34150000
C      -43.13810000     -31.62220000     -71.69580000
C      -44.15090000     -30.72510000     -72.06680000
H      -45.99070000     -30.44610000     -73.14160000
H      -43.93930000     -34.12620000     -73.84020000
H      -42.30880000     -31.37460000     -71.01450000
H      -44.24460000     -29.76340000     -71.54010000
C      -41.88930000     -33.92370000     -72.05340000
H      -40.96390000     -33.41210000     -71.78480000
H      -41.58910000     -34.59190000     -72.93470000
C      -45.99250000     -32.72780000     -74.67190000
H      -45.83820000     -32.10040000     -75.56560000
H      -45.77480000     -33.71080000     -74.91260000
S      -42.28250000     -35.04300000     -70.65890000
S      -47.75300000     -32.64620000     -74.25000000
C      -43.57160000     -36.15470000     -71.41940000
H      -43.79630000     -35.77820000     -72.39690000
H      -43.14250000     -37.13810000     -71.48360000
C      -48.14850000     -34.28890000     -73.45660000
H      -48.17560000     -35.10660000     -74.14900000
H      -49.14070000     -34.28740000     -72.95890000
C      -47.12430000     -34.68790000     -72.43010000
H      -47.44340000     -35.69910000     -72.11280000
H      -46.18570000     -34.87890000     -72.97970000
C      -44.76310000     -36.20790000     -70.48340000
H      -44.73220000     -36.96750000     -69.72870000
H      -45.64770000     -36.42280000     -71.13540000
C      -45.14590000     -34.92110000     -69.62790000
C      -44.54110000     -34.62850000     -68.45440000
C      -46.13820000     -33.96830000     -70.07020000
H      -43.87260000     -35.28650000     -67.98230000
C      -46.23100000     -32.94130000     -69.08060000
C      -47.00750000     -33.70750000     -71.20760000
C      -47.61870000     -32.45270000     -71.11540000
S      -45.18800000     -33.18200000     -67.68550000
S      -47.24880000     -31.68260000     -69.57850000
H      -48.33440000     -32.00240000     -71.68680000
