40
Properties=species:S:1:pos:R:3 #=T CELL(abcABC):=T 1.889726e+02=T 90.00000=T Traj:=T positionsangstrom=T Step:=T 0=T Bead:=T pbc="F F F"
C      -46.06200000     -32.21890000     -74.79320000
C      -46.75400000     -31.41480000     -73.86170000
C      -47.88660000     -32.01820000     -73.21320000
C      -48.04210000     -33.38870000     -73.25960000
C      -47.21710000     -34.19270000     -74.04550000
C      -46.24060000     -33.59730000     -74.90120000
H      -45.27180000     -31.72750000     -75.29730000
H      -48.47400000     -31.31870000     -72.66000000
H      -47.38910000     -35.26810000     -74.08730000
H      -45.68420000     -34.08470000     -75.64840000
C      -49.10140000     -34.08510000     -72.38270000
H      -49.96150000     -34.27700000     -72.96230000
H      -49.44220000     -33.44950000     -71.60950000
C      -46.38910000     -29.91780000     -73.77080000
H      -46.42710000     -29.42070000     -74.71840000
H      -47.20660000     -29.39010000     -73.20560000
S      -48.48680000     -35.66990000     -71.73690000
S      -44.61850000     -29.67340000     -73.23720000
C      -47.10090000     -35.14880000     -70.62070000
H      -47.23760000     -34.07160000     -70.35170000
H      -47.24390000     -35.76190000     -69.75300000
C      -44.51510000     -30.56850000     -71.47820000
H      -45.41300000     -30.32430000     -70.94510000
H      -43.60830000     -30.12730000     -71.12700000
C      -44.43220000     -32.15130000     -71.43250000
H      -45.46610000     -32.45410000     -71.48730000
H      -44.07720000     -32.58410000     -72.37800000
C      -45.73430000     -35.55480000     -71.24420000
H      -45.64490000     -34.95010000     -72.15520000
H      -45.75970000     -36.64960000     -71.45470000
C      -44.62790000     -35.23680000     -70.15510000
C      -44.52310000     -36.26390000     -69.18030000
C      -43.79630000     -34.11500000     -69.79320000
H      -45.04690000     -37.21640000     -69.32750000
C      -42.98670000     -34.40000000     -68.67530000
C      -43.63020000     -32.76120000     -70.26840000
C      -42.70600000     -32.06100000     -69.55330000
S      -43.28070000     -36.02050000     -68.04770000
S      -42.01040000     -33.03780000     -68.22330000
H      -42.19920000     -31.11330000     -69.70550000
