40
Properties=species:S:1:pos:R:3 #=T CELL(abcABC):=T 1.889726e+02=T 90.00000=T Traj:=T positionsangstrom=T Step:=T 0=T Bead:=T pbc="F F F"
C      -42.95220000     -30.38360000     -72.96970000
C      -42.78540000     -31.12820000     -71.73760000
C      -42.51490000     -32.49540000     -71.79110000
C      -42.30820000     -33.16630000     -73.02120000
C      -42.46270000     -32.42480000     -74.18710000
C      -42.76910000     -31.08530000     -74.18820000
H      -43.12080000     -29.31820000     -72.78660000
H      -42.52960000     -33.11310000     -70.88060000
H      -42.41060000     -33.04570000     -75.14710000
H      -42.82150000     -30.58740000     -75.15870000
C      -42.11630000     -34.66130000     -73.03360000
H      -41.94470000     -34.89250000     -71.95010000
H      -41.19480000     -34.85630000     -73.68300000
C      -42.90890000     -30.30210000     -70.49210000
H      -41.93130000     -29.79180000     -70.42680000
H      -43.66750000     -29.53240000     -70.51950000
S      -43.35260000     -35.86790000     -73.58570000
S      -43.01480000     -31.37000000     -68.84630000
C      -44.85090000     -35.45640000     -72.60820000
H      -45.51210000     -36.32540000     -73.00050000
H      -44.65910000     -35.60560000     -71.52760000
C      -44.73910000     -32.10090000     -68.62800000
H      -45.40080000     -31.25970000     -68.74090000
H      -44.81920000     -32.32810000     -67.52150000
C      -45.19490000     -33.22810000     -69.49710000
H      -44.98020000     -33.10480000     -70.55660000
H      -44.83850000     -34.11460000     -68.97270000
C      -45.68650000     -34.21490000     -72.82970000
H      -45.79230000     -34.03140000     -73.90460000
H      -45.18150000     -33.32930000     -72.41930000
C      -47.03840000     -34.39960000     -72.07010000
C      -48.12600000     -34.92130000     -72.74790000
C      -47.34880000     -34.09110000     -70.68080000
H      -48.19960000     -35.22790000     -73.78870000
C      -48.72180000     -34.25040000     -70.38880000
C      -46.68620000     -33.48280000     -69.56800000
C      -47.52220000     -33.38150000     -68.47420000
S      -49.63820000     -34.84990000     -71.76610000
S      -49.11930000     -33.81010000     -68.76590000
H      -47.38550000     -32.84160000     -67.48270000
