40
Properties=species:S:1:pos:R:3 #=T CELL(abcABC):=T 1.889726e+02=T 90.00000=T Traj:=T positionsangstrom=T Step:=T 0=T Bead:=T pbc="F F F"
C      -44.76210000     -31.20190000     -72.54990000
C      -44.23130000     -32.32480000     -73.24900000
C      -43.14070000     -33.05710000     -72.77120000
C      -42.58210000     -32.74450000     -71.52420000
C      -43.08150000     -31.61280000     -70.85600000
C      -44.11760000     -30.83370000     -71.38770000
H      -45.59150000     -30.58420000     -72.99920000
H      -42.66010000     -33.82120000     -73.41590000
H      -42.67240000     -31.27300000     -69.90220000
H      -44.40110000     -29.78670000     -71.04030000
C      -41.56000000     -33.67350000     -70.90250000
H      -40.90880000     -33.10540000     -70.24580000
H      -40.99150000     -34.28070000     -71.63160000
C      -44.85400000     -32.69890000     -74.52700000
H      -44.39640000     -32.08510000     -75.42440000
H      -44.62940000     -33.72660000     -74.76380000
S      -42.40620000     -35.01300000     -69.84820000
S      -46.68280000     -32.49070000     -74.79250000
C      -43.55130000     -35.65880000     -71.17230000
H      -43.64510000     -34.92920000     -71.98690000
H      -42.96790000     -36.44690000     -71.66890000
C      -47.32500000     -34.11850000     -74.36310000
H      -46.93190000     -34.79260000     -75.18610000
H      -48.43320000     -34.04430000     -74.33790000
C      -46.86020000     -34.75390000     -73.01430000
H      -47.31830000     -35.72090000     -72.90930000
H      -45.72030000     -34.87370000     -73.05230000
C      -44.80520000     -36.04320000     -70.52420000
H      -44.53670000     -36.78040000     -69.74750000
H      -45.47920000     -36.62990000     -71.18430000
C      -45.51740000     -34.89730000     -69.83360000
C      -45.19520000     -34.55200000     -68.54200000
C      -46.43540000     -34.00380000     -70.44880000
H      -44.64460000     -35.02470000     -67.77290000
C      -46.94960000     -33.09820000     -69.50520000
C      -47.14810000     -33.85330000     -71.72810000
C      -48.15260000     -32.86060000     -71.71970000
S      -46.29770000     -33.28500000     -67.88460000
S      -48.15400000     -32.01790000     -70.19090000
H      -48.71670000     -32.56430000     -72.59470000
