40
Properties=species:S:1:pos:R:3 #=T CELL(abcABC):=T 1.889726e+02=T 90.00000=T Traj:=T positionsangstrom=T Step:=T 0=T Bead:=T pbc="F F F"
C      -44.80950000     -31.17000000     -72.45380000
C      -44.59210000     -32.18820000     -73.42650000
C      -43.52360000     -33.09890000     -73.18550000
C      -42.78540000     -33.04220000     -71.99390000
C      -43.09030000     -32.07170000     -70.97560000
C      -44.03760000     -31.15450000     -71.28850000
H      -45.66390000     -30.48070000     -72.49880000
H      -43.28180000     -33.75340000     -73.99820000
H      -42.47340000     -31.99000000     -70.04120000
H      -44.20540000     -30.29700000     -70.59690000
C      -41.69010000     -34.08440000     -71.79300000
H      -40.64660000     -33.76250000     -71.56420000
H      -41.59890000     -34.69470000     -72.76860000
C      -45.32780000     -32.28490000     -74.77940000
H      -45.13800000     -31.30890000     -75.23980000
H      -44.93910000     -33.09320000     -75.40540000
S      -42.04980000     -35.30860000     -70.46010000
S      -47.12580000     -32.46280000     -74.59870000
C      -43.63460000     -36.03790000     -71.13410000
H      -43.96870000     -35.47180000     -72.04400000
H      -43.44830000     -37.08710000     -71.31300000
C      -47.46680000     -34.17710000     -74.03850000
H      -47.25610000     -34.89120000     -74.83840000
H      -48.58070000     -34.17210000     -73.87490000
C      -46.81510000     -34.67010000     -72.74820000
H      -47.20130000     -35.75830000     -72.56460000
H      -45.67070000     -34.75820000     -72.91670000
C      -44.73100000     -36.03850000     -70.01490000
H      -44.27290000     -36.47760000     -69.10460000
H      -45.56960000     -36.69540000     -70.19600000
C      -45.22030000     -34.69690000     -69.56160000
C      -44.88200000     -34.13280000     -68.37180000
C      -46.34050000     -33.96450000     -70.18780000
H      -44.02100000     -34.59840000     -67.77140000
C      -46.80110000     -32.96370000     -69.36860000
C      -47.06440000     -33.85280000     -71.49810000
C      -47.99480000     -32.80130000     -71.48830000
S      -45.97440000     -32.89560000     -67.82550000
S      -48.12690000     -31.93320000     -69.97410000
H      -48.69500000     -32.45950000     -72.30490000
