40
Properties=species:S:1:pos:R:3 #=T CELL(abcABC):=T 1.889726e+02=T 90.00000=T Traj:=T positionsangstrom=T Step:=T 0=T Bead:=T pbc="F F F"
C      -46.48620000     -31.73690000     -74.78590000
C      -47.03500000     -31.35370000     -73.54750000
C      -47.84210000     -32.35880000     -72.86160000
C      -48.19040000     -33.52820000     -73.55800000
C      -47.63350000     -33.82750000     -74.83560000
C      -46.85620000     -32.89320000     -75.52910000
H      -45.81730000     -31.02570000     -75.26300000
H      -48.25350000     -32.18000000     -71.81530000
H      -47.92760000     -34.79540000     -75.27080000
H      -46.44920000     -33.09650000     -76.50850000
C      -48.93170000     -34.64830000     -72.83340000
H      -49.56910000     -35.16520000     -73.57920000
H      -49.36720000     -34.36400000     -71.84480000
C      -46.80950000     -30.01710000     -72.93840000
H      -46.96980000     -29.28250000     -73.81210000
H      -47.56690000     -29.89640000     -72.16800000
S      -47.62310000     -35.90510000     -72.47000000
S      -45.32640000     -29.59270000     -72.06000000
C      -46.53450000     -35.07520000     -71.34570000
H      -46.69520000     -33.95450000     -71.18900000
H      -46.51850000     -35.48270000     -70.34080000
C      -45.12910000     -30.97900000     -70.88230000
H      -46.04800000     -31.67000000     -71.00760000
H      -44.99640000     -30.55580000     -69.88500000
C      -43.86400000     -31.76710000     -71.28490000
H      -44.15490000     -32.45560000     -72.12780000
H      -43.11130000     -31.01590000     -71.54880000
C      -45.04270000     -35.16090000     -71.86490000
H      -44.84340000     -34.39970000     -72.64530000
H      -44.86910000     -36.09290000     -72.40180000
C      -44.24550000     -35.08880000     -70.59870000
C      -43.94380000     -36.33110000     -70.00130000
C      -43.63250000     -34.01120000     -69.85540000
H      -44.17800000     -37.31770000     -70.41240000
C      -43.11100000     -34.43000000     -68.64560000
C      -43.30480000     -32.57010000     -70.05200000
C      -42.67360000     -32.07270000     -68.91730000
S      -43.21000000     -36.17740000     -68.39780000
S      -42.47230000     -33.20420000     -67.62140000
H      -42.44360000     -31.07130000     -68.83950000
