40
Properties=species:S:1:pos:R:3 #=T CELL(abcABC):=T 1.889726e+02=T 90.00000=T Traj:=T positionsangstrom=T Step:=T 0=T Bead:=T pbc="F F F"
C      -45.51460000     -31.28840000     -73.24880000
C      -45.17310000     -32.46420000     -73.92730000
C      -43.91390000     -33.06870000     -73.85030000
C      -43.08840000     -32.70320000     -72.75030000
C      -43.46630000     -31.61310000     -71.90760000
C      -44.61230000     -30.88460000     -72.19380000
H      -46.48650000     -30.83710000     -73.36190000
H      -43.60820000     -33.92520000     -74.36540000
H      -42.87820000     -31.32200000     -71.07140000
H      -44.90380000     -30.05590000     -71.56000000
C      -41.85860000     -33.44210000     -72.37940000
H      -41.14590000     -32.80400000     -71.90440000
H      -41.33720000     -33.84330000     -73.29670000
C      -46.22440000     -32.97570000     -74.96630000
H      -46.16880000     -32.18630000     -75.77560000
H      -45.86660000     -33.88980000     -75.47250000
S      -42.20380000     -34.67130000     -71.07920000
S      -47.98440000     -33.00100000     -74.28600000
C      -43.66800000     -35.75520000     -71.56340000
H      -44.21550000     -35.20930000     -72.33930000
H      -43.28750000     -36.74230000     -71.95960000
C      -48.07370000     -34.49420000     -73.12180000
H      -48.02730000     -35.32610000     -73.83090000
H      -49.09410000     -34.50810000     -72.65400000
C      -46.92630000     -34.64570000     -72.09290000
H      -46.97770000     -35.68040000     -71.75130000
H      -45.92510000     -34.64970000     -72.57890000
C      -44.46770000     -36.14400000     -70.27480000
H      -43.71410000     -36.76420000     -69.79250000
H      -45.34300000     -36.83670000     -70.47180000
C      -44.89490000     -34.96890000     -69.45370000
C      -44.27880000     -34.54270000     -68.31600000
C      -45.99280000     -34.03770000     -69.74980000
H      -43.58310000     -35.08080000     -67.65770000
C      -46.04560000     -33.04050000     -68.88080000
C      -46.92580000     -33.82980000     -70.87030000
C      -47.65800000     -32.65430000     -70.65590000
S      -45.00110000     -33.11950000     -67.50240000
S      -47.21470000     -31.75910000     -69.21290000
H      -48.28900000     -32.19850000     -71.36360000
