40
Properties=species:S:1:pos:R:3 #=T CELL(abcABC):=T 1.889726e+02=T 90.00000=T Traj:=T positionsangstrom=T Step:=T 0=T Bead:=T pbc="F F F"
C      -45.16760000     -31.08170000     -73.18560000
C      -45.04250000     -32.37000000     -73.72470000
C      -44.03230000     -33.30750000     -73.25360000
C      -42.98990000     -32.84150000     -72.44090000
C      -43.15110000     -31.54950000     -71.88800000
C      -44.27140000     -30.70560000     -72.22700000
H      -45.95670000     -30.42760000     -73.57740000
H      -44.02400000     -34.38210000     -73.59260000
H      -42.49770000     -31.22110000     -71.03440000
H      -44.48120000     -29.80530000     -71.61590000
C      -41.78870000     -33.72290000     -72.06790000
H      -40.96460000     -33.03310000     -71.78660000
H      -41.45760000     -34.23170000     -72.91880000
C      -46.04790000     -32.79470000     -74.70630000
H      -46.11740000     -32.10380000     -75.56630000
H      -45.95830000     -33.79010000     -75.13990000
S      -42.12170000     -34.91290000     -70.63000000
S      -47.91180000     -32.68360000     -74.18660000
C      -43.44230000     -35.95760000     -71.27250000
H      -43.89580000     -35.48060000     -72.16900000
H      -42.93880000     -36.90810000     -71.57290000
C      -48.24530000     -34.31510000     -73.34780000
H      -48.35080000     -35.10060000     -74.17550000
H      -49.26580000     -34.25050000     -73.01240000
C      -47.21230000     -34.68930000     -72.31530000
H      -47.58670000     -35.64680000     -71.87460000
H      -46.26310000     -34.84340000     -72.75710000
C      -44.68550000     -36.23590000     -70.40390000
H      -44.38040000     -36.96250000     -69.68170000
H      -45.45980000     -36.68680000     -71.03590000
C      -45.17820000     -35.00550000     -69.69080000
C      -44.70230000     -34.85630000     -68.42740000
C      -46.06680000     -33.98750000     -70.12770000
H      -44.04990000     -35.53640000     -67.93550000
C      -46.05720000     -32.89220000     -69.12230000
C      -46.99350000     -33.72300000     -71.17350000
C      -47.78840000     -32.56330000     -70.94570000
S      -45.06420000     -33.25050000     -67.68320000
S      -47.23380000     -31.66180000     -69.54590000
H      -48.55530000     -32.23680000     -71.46210000
