40
Properties=species:S:1:pos:R:3 #=T CELL(abcABC):=T 1.889726e+02=T 90.00000=T Traj:=T positionsangstrom=T Step:=T 0=T Bead:=T pbc="F F F"
C      -46.00680000     -31.52380000     -72.54870000
C      -46.01100000     -32.69440000     -73.27330000
C      -44.74430000     -33.33540000     -73.44310000
C      -43.53380000     -32.81290000     -72.96760000
C      -43.58100000     -31.62730000     -72.26680000
C      -44.79390000     -30.99130000     -72.07720000
H      -46.92690000     -30.95330000     -72.29580000
H      -44.79270000     -34.23790000     -74.06150000
H      -42.63720000     -31.35560000     -71.75690000
H      -44.79210000     -30.08440000     -71.46920000
C      -42.23770000     -33.42660000     -73.30620000
H      -41.44890000     -32.66190000     -73.35080000
H      -42.35860000     -34.19290000     -74.15180000
C      -47.19360000     -33.17290000     -74.05560000
H      -47.26810000     -32.43650000     -74.88270000
H      -46.99460000     -34.13290000     -74.48450000
S      -41.52510000     -34.41910000     -71.83270000
S      -48.83110000     -33.22840000     -73.22950000
C      -42.90260000     -35.71070000     -71.76130000
H      -43.59080000     -35.52050000     -72.62740000
H      -42.45680000     -36.62060000     -71.88490000
C      -48.67770000     -34.86330000     -72.33700000
H      -48.83920000     -35.69770000     -73.06190000
H      -49.50360000     -35.02380000     -71.57420000
C      -47.33000000     -35.15320000     -71.61280000
H      -47.53910000     -36.10160000     -71.12980000
H      -46.55150000     -35.19910000     -72.37120000
C      -43.80360000     -35.87930000     -70.52070000
H      -43.22960000     -36.28730000     -69.71520000
H      -44.67050000     -36.53100000     -70.68770000
C      -44.26750000     -34.54600000     -70.04770000
C      -43.34510000     -33.80570000     -69.30440000
C      -45.59000000     -33.89520000     -69.99460000
H      -42.30880000     -33.95440000     -69.35900000
C      -45.60730000     -32.75270000     -69.17850000
C      -46.96270000     -34.09610000     -70.49920000
C      -47.93450000     -33.24910000     -70.01780000
S      -44.02730000     -32.34940000     -68.61900000
S      -47.23990000     -32.11330000     -68.83960000
H      -49.04340000     -33.17360000     -70.13750000
