40
Properties=species:S:1:pos:R:3 #=T CELL(abcABC):=T 1.889726e+02=T 90.00000=T Traj:=T positionsangstrom=T Step:=T 0=T Bead:=T pbc="F F F"
C      -49.25450000     -34.03000000     -70.28180000
C      -48.10980000     -34.19380000     -69.47760000
C      -47.13350000     -35.18410000     -69.76760000
C      -47.32590000     -36.01340000     -70.85870000
C      -48.47780000     -35.85850000     -71.64340000
C      -49.38390000     -34.83250000     -71.39330000
H      -49.94590000     -33.31070000     -69.96860000
H      -46.21040000     -35.23910000     -69.28000000
H      -48.53370000     -36.58540000     -72.39550000
H      -50.14480000     -34.72730000     -72.13490000
C      -46.30690000     -37.02710000     -71.25700000
H      -46.31770000     -37.23070000     -72.36950000
H      -46.50420000     -38.00920000     -70.82430000
C      -47.91020000     -33.24500000     -68.29330000
H      -48.47970000     -32.35390000     -68.38590000
H      -48.19070000     -33.82920000     -67.39480000
S      -44.55510000     -36.80300000     -70.76540000
S      -46.19100000     -32.87670000     -67.94490000
C      -43.93740000     -35.49720000     -71.89630000
H      -43.19160000     -34.87050000     -71.34620000
H      -43.46730000     -35.94990000     -72.85060000
C      -45.71110000     -31.90360000     -69.45080000
H      -45.91260000     -30.80750000     -69.34030000
H      -46.38070000     -32.15370000     -70.27340000
C      -44.22530000     -32.25400000     -69.74660000
H      -43.60190000     -31.95640000     -68.88240000
H      -44.11060000     -33.28770000     -69.93370000
C      -45.05480000     -34.49600000     -72.29390000
H      -45.60050000     -34.19960000     -71.39670000
H      -45.68820000     -35.06500000     -72.93750000
C      -44.39930000     -33.27200000     -72.94590000
C      -44.39920000     -33.12240000     -74.27950000
C      -43.82280000     -32.11900000     -72.34350000
H      -44.65280000     -33.81790000     -75.05720000
C      -43.35040000     -31.21030000     -73.33430000
C      -43.67810000     -31.55780000     -70.97040000
C      -43.03560000     -30.34510000     -70.95060000
S      -43.60960000     -31.70580000     -74.95820000
S      -42.68410000     -29.76990000     -72.61980000
H      -42.84060000     -29.85660000     -70.03540000
