40
Properties=species:S:1:pos:R:3 #=T CELL(abcABC):=T 1.889726e+02=T 90.00000=T Traj:=T positionsangstrom=T Step:=T 0=T Bead:=T pbc="F F F"
C      -46.27410000     -31.53720000     -72.62470000
C      -46.40790000     -32.56490000     -73.62340000
C      -45.27960000     -33.22750000     -73.98530000
C      -43.99860000     -32.89010000     -73.50100000
C      -43.87500000     -31.78760000     -72.60580000
C      -45.04350000     -31.16220000     -72.08500000
H      -47.09400000     -30.96060000     -72.21710000
H      -45.44680000     -34.17030000     -74.56150000
H      -42.92530000     -31.54580000     -72.13220000
H      -44.83560000     -30.53500000     -71.24950000
C      -42.70680000     -33.53660000     -73.98300000
H      -41.80020000     -32.94940000     -73.77700000
H      -42.85790000     -33.82380000     -75.02620000
C      -47.71730000     -33.05850000     -74.10150000
H      -48.13640000     -32.22470000     -74.72500000
H      -47.70620000     -33.88440000     -74.81840000
S      -42.02270000     -35.01960000     -72.93200000
S      -48.99660000     -33.18620000     -72.75290000
C      -43.63280000     -35.74030000     -72.31270000
H      -44.41080000     -35.28830000     -72.88170000
H      -43.52180000     -36.78960000     -72.63220000
C      -48.55100000     -34.70080000     -71.71840000
H      -48.83260000     -35.58240000     -72.30990000
H      -49.29450000     -34.68950000     -70.87010000
C      -47.14080000     -34.81360000     -71.17690000
H      -47.06820000     -35.80370000     -70.61140000
H      -46.47860000     -35.01640000     -72.04380000
C      -43.80260000     -35.66540000     -70.72630000
H      -42.89050000     -36.06240000     -70.28380000
H      -44.58690000     -36.34580000     -70.41360000
C      -44.00630000     -34.38830000     -69.98580000
C      -42.98380000     -33.93280000     -69.16910000
C      -45.23540000     -33.65610000     -69.78170000
H      -42.00440000     -34.37040000     -69.23490000
C      -45.06940000     -32.66580000     -68.82770000
C      -46.59920000     -33.78300000     -70.24290000
C      -47.40030000     -32.86080000     -69.62380000
S      -43.52110000     -32.71980000     -68.02880000
S      -46.52870000     -31.82120000     -68.46250000
H      -48.38100000     -32.51290000     -69.89990000
