40
Properties=species:S:1:pos:R:3 #=T CELL(abcABC):=T 1.889726e+02=T 90.00000=T Traj:=T positionsangstrom=T Step:=T 0=T Bead:=T pbc="F F F"
C      -46.06060000     -31.44520000     -72.45940000
C      -46.09100000     -32.51440000     -73.31580000
C      -44.84950000     -33.16460000     -73.69040000
C      -43.64140000     -32.75330000     -73.13070000
C      -43.62120000     -31.61890000     -72.33350000
C      -44.83820000     -30.99020000     -71.97680000
H      -47.01410000     -31.02030000     -72.17340000
H      -44.79520000     -33.92430000     -74.41790000
H      -42.66630000     -31.22050000     -71.85610000
H      -44.88840000     -30.16940000     -71.24500000
C      -42.28270000     -33.38550000     -73.46670000
H      -41.55720000     -32.58590000     -73.51920000
H      -42.33410000     -33.75850000     -74.46710000
C      -47.32790000     -33.05700000     -73.97700000
H      -47.72330000     -32.35550000     -74.71720000
H      -47.15240000     -34.08910000     -74.33780000
S      -41.72240000     -34.63760000     -72.19940000
S      -48.69430000     -33.31310000     -72.73700000
C      -43.19640000     -35.75780000     -72.12110000
H      -43.74280000     -35.48410000     -73.04020000
H      -42.65310000     -36.71410000     -72.27860000
C      -48.39240000     -35.09730000     -72.27090000
H      -48.19800000     -35.65440000     -73.13370000
H      -49.40820000     -35.37810000     -71.90630000
C      -47.20770000     -35.29510000     -71.28910000
H      -47.52130000     -36.19990000     -70.71990000
H      -46.26160000     -35.36770000     -71.86410000
C      -43.96850000     -35.81350000     -70.79820000
H      -43.23800000     -36.21490000     -70.02390000
H      -44.82920000     -36.47770000     -70.79510000
C      -44.30840000     -34.49210000     -70.08770000
C      -43.30210000     -33.79280000     -69.43290000
C      -45.59990000     -33.85010000     -69.95720000
H      -42.35360000     -34.20590000     -69.22510000
C      -45.54340000     -32.74590000     -69.05260000
C      -46.96160000     -34.13090000     -70.33200000
C      -47.85610000     -33.16890000     -69.86090000
S      -43.91050000     -32.40130000     -68.49870000
S      -47.08990000     -31.93720000     -68.93080000
H      -48.91170000     -33.15930000     -70.15600000
