40
Properties=species:S:1:pos:R:3 #=T CELL(abcABC):=T 1.889726e+02=T 90.00000=T Traj:=T positionsangstrom=T Step:=T 0=T Bead:=T pbc="F F F"
C      -43.10160000     -30.62710000     -72.70600000
C      -42.81150000     -31.34550000     -71.55670000
C      -42.50460000     -32.72490000     -71.73240000
C      -42.46950000     -33.28020000     -72.95090000
C      -42.62810000     -32.57420000     -74.10730000
C      -42.92790000     -31.25040000     -73.95160000
H      -43.03730000     -29.51650000     -72.68170000
H      -42.24740000     -33.24350000     -70.81520000
H      -42.69530000     -33.02850000     -75.09610000
H      -43.12710000     -30.70920000     -74.80540000
C      -42.16560000     -34.72270000     -73.10050000
H      -41.84280000     -35.18950000     -72.11370000
H      -41.24430000     -34.81270000     -73.72620000
C      -42.70890000     -30.58250000     -70.27580000
H      -41.78170000     -30.06170000     -70.06670000
H      -43.49400000     -29.81720000     -70.28130000
S      -43.60760000     -35.60070000     -73.90180000
S      -42.93480000     -31.44970000     -68.65180000
C      -44.92950000     -35.38160000     -72.63720000
H      -45.58890000     -36.17550000     -72.63700000
H      -44.46490000     -35.33270000     -71.66270000
C      -44.60150000     -32.13580000     -68.57410000
H      -45.34550000     -31.26090000     -68.69210000
H      -44.58630000     -32.42390000     -67.52100000
C      -45.09960000     -33.24640000     -69.59820000
H      -44.67990000     -33.05390000     -70.60390000
H      -44.61730000     -34.22380000     -69.44520000
C      -45.75000000     -34.14060000     -72.93200000
H      -45.96440000     -34.09910000     -73.99920000
H      -45.23090000     -33.18170000     -72.78630000
C      -47.01590000     -34.26870000     -72.13120000
C      -48.13260000     -34.72630000     -72.81950000
C      -47.29460000     -33.92020000     -70.75260000
H      -48.09400000     -34.89550000     -73.90550000
C      -48.62900000     -34.13880000     -70.45350000
C      -46.58900000     -33.45760000     -69.58770000
C      -47.35080000     -33.41860000     -68.44240000
S      -49.60230000     -34.64560000     -71.88810000
S      -49.02800000     -33.88270000     -68.75510000
H      -47.09930000     -33.28550000     -67.41280000
