40
Properties=species:S:1:pos:R:3 #=T CELL(abcABC):=T 1.889726e+02=T 90.00000=T Traj:=T positionsangstrom=T Step:=T 0=T Bead:=T pbc="F F F"
C      -46.35520000     -31.08860000     -73.12170000
C      -46.59490000     -32.37380000     -73.64720000
C      -45.42810000     -33.17010000     -73.89820000
C      -44.15040000     -32.74800000     -73.57310000
C      -43.98090000     -31.49620000     -73.07420000
C      -45.07110000     -30.65920000     -72.83020000
H      -47.13160000     -30.36360000     -72.92030000
H      -45.62080000     -34.17650000     -74.21130000
H      -42.98470000     -31.09200000     -72.78550000
H      -44.83280000     -29.68070000     -72.53400000
C      -42.94740000     -33.67850000     -73.89460000
H      -42.13090000     -33.10930000     -74.38070000
H      -43.46580000     -34.29040000     -74.66560000
C      -47.97950000     -32.92970000     -73.91220000
H      -48.49860000     -32.41160000     -74.70810000
H      -47.93890000     -33.94850000     -74.26710000
S      -42.18860000     -34.62190000     -72.57260000
S      -49.00370000     -32.88780000     -72.39770000
C      -43.64000000     -35.81140000     -72.27150000
H      -44.43540000     -35.19030000     -72.74170000
H      -43.53720000     -36.73420000     -72.79960000
C      -48.69330000     -34.41200000     -71.44490000
H      -49.13520000     -35.19270000     -72.10710000
H      -49.38600000     -34.15320000     -70.55920000
C      -47.23900000     -34.83560000     -71.10240000
H      -47.20040000     -35.83560000     -70.63420000
H      -46.62840000     -34.85650000     -72.03530000
C      -44.00330000     -36.22990000     -70.78720000
H      -43.35510000     -36.94370000     -70.37910000
H      -44.99030000     -36.71810000     -70.92120000
C      -44.07100000     -35.02040000     -69.86180000
C      -42.91160000     -34.57420000     -69.29510000
C      -45.18760000     -34.05480000     -69.65830000
H      -41.91940000     -35.05680000     -69.22030000
C      -44.86150000     -32.98640000     -68.77970000
C      -46.54950000     -33.91880000     -70.13780000
C      -47.15590000     -32.76140000     -69.61520000
S      -43.22380000     -33.12320000     -68.28680000
S      -46.14830000     -31.83890000     -68.54370000
H      -48.08230000     -32.28180000     -69.86410000
