40
Properties=species:S:1:pos:R:3 #=T CELL(abcABC):=T 1.889726e+02=T 90.00000=T Traj:=T positionsangstrom=T Step:=T 0=T Bead:=T pbc="F F F"
C      -46.42110000     -31.12150000     -72.84470000
C      -46.61980000     -32.35530000     -73.56460000
C      -45.50210000     -33.07960000     -73.96960000
C      -44.19490000     -32.66060000     -73.73080000
C      -44.02730000     -31.45840000     -72.92610000
C      -45.13750000     -30.76930000     -72.45380000
H      -47.31660000     -30.69610000     -72.50410000
H      -45.63230000     -33.92590000     -74.66550000
H      -43.07440000     -31.15820000     -72.52030000
H      -45.01390000     -29.83960000     -71.89100000
C      -43.00430000     -33.45940000     -74.05630000
H      -42.11630000     -32.79530000     -74.31270000
H      -43.14860000     -34.08790000     -74.85700000
C      -48.07600000     -32.86470000     -73.79570000
H      -48.62220000     -32.19820000     -74.50080000
H      -48.05700000     -33.86050000     -74.23890000
S      -42.55560000     -34.49580000     -72.62100000
S      -49.17170000     -32.96100000     -72.22390000
C      -44.09470000     -35.49010000     -72.40730000
H      -44.94580000     -34.79380000     -72.53940000
H      -44.11960000     -36.29960000     -73.15920000
C      -48.68800000     -34.61390000     -71.47740000
H      -48.90800000     -35.27840000     -72.29220000
H      -49.31910000     -34.97490000     -70.69680000
C      -47.21150000     -34.85720000     -71.10250000
H      -46.97700000     -35.81060000     -70.71200000
H      -46.71330000     -34.82450000     -72.05260000
C      -44.18300000     -36.16560000     -71.05490000
H      -43.27970000     -36.83770000     -70.96070000
H      -45.08890000     -36.79540000     -70.97040000
C      -44.05450000     -35.04180000     -69.98410000
C      -42.92620000     -34.92710000     -69.20060000
C      -45.04630000     -34.00050000     -69.80730000
H      -42.11270000     -35.62530000     -69.19570000
C      -44.56640000     -33.06980000     -68.90050000
C      -46.44420000     -33.84590000     -70.16730000
C      -46.88420000     -32.64390000     -69.61140000
S      -43.00020000     -33.40430000     -68.20960000
S      -45.70510000     -31.73440000     -68.68650000
H      -47.89850000     -32.16900000     -69.78630000
