40
Properties=species:S:1:pos:R:3 #=T CELL(abcABC):=T 1.889726e+02=T 90.00000=T Traj:=T positionsangstrom=T Step:=T 0=T Bead:=T pbc="F F F"
C      -46.74270000     -31.11890000     -71.25540000
C      -47.41810000     -31.87790000     -72.23190000
C      -46.65900000     -32.29980000     -73.34440000
C      -45.28390000     -32.03390000     -73.46970000
C      -44.66250000     -31.28920000     -72.46680000
C      -45.33350000     -30.90410000     -71.33380000
H      -47.29690000     -30.69640000     -70.37430000
H      -47.11190000     -32.80950000     -74.19180000
H      -43.64160000     -31.11170000     -72.46770000
H      -44.75650000     -30.33690000     -70.56160000
C      -44.53220000     -32.58570000     -74.64710000
H      -43.87390000     -31.75730000     -75.04220000
H      -45.26680000     -32.86360000     -75.43140000
C      -48.81450000     -32.23320000     -72.11800000
H      -49.48760000     -31.37180000     -72.11530000
H      -49.33110000     -32.80500000     -72.90300000
S      -43.56840000     -34.10040000     -74.20200000
S      -49.22410000     -32.95780000     -70.41560000
C      -44.78320000     -35.30300000     -73.46690000
H      -45.57400000     -34.72830000     -73.10520000
H      -45.16530000     -36.05320000     -74.15980000
C      -48.41990000     -34.63420000     -70.30010000
H      -49.09190000     -35.44810000     -70.83890000
H      -48.38610000     -34.87060000     -69.25050000
C      -47.07400000     -34.79240000     -70.84190000
H      -46.92510000     -35.83570000     -70.77960000
H      -47.17170000     -34.43970000     -71.88210000
C      -44.20400000     -36.03230000     -72.24950000
H      -43.43450000     -36.62280000     -72.68930000
H      -44.90400000     -36.68370000     -71.81740000
C      -43.65600000     -35.16520000     -71.14720000
C      -42.33700000     -35.04810000     -70.96070000
C      -44.40480000     -34.28730000     -70.31320000
H      -41.55160000     -35.55360000     -71.53230000
C      -43.56920000     -33.56890000     -69.43850000
C      -45.90750000     -34.09760000     -70.12550000
C      -46.02790000     -33.23720000     -69.03480000
S      -41.90840000     -33.94320000     -69.63430000
S      -44.46600000     -32.47070000     -68.48620000
H      -46.89570000     -32.92030000     -68.51390000
