40
Properties=species:S:1:pos:R:3 #=T CELL(abcABC):=T 1.889726e+02=T 90.00000=T Traj:=T positionsangstrom=T Step:=T 0=T Bead:=T pbc="F F F"
C      -46.41380000     -31.21210000     -71.51090000
C      -46.95240000     -32.08610000     -72.48240000
C      -46.19380000     -32.49540000     -73.58390000
C      -44.85210000     -32.14320000     -73.63320000
C      -44.35530000     -31.22590000     -72.72130000
C      -45.12150000     -30.73060000     -71.67860000
H      -46.96950000     -30.99870000     -70.61520000
H      -46.75350000     -33.17170000     -74.29740000
H      -43.21950000     -31.05510000     -72.78760000
H      -44.73840000     -30.03910000     -70.87560000
C      -43.92780000     -32.79380000     -74.63460000
H      -43.16590000     -32.12700000     -74.88640000
H      -44.55120000     -32.88460000     -75.53660000
C      -48.43490000     -32.60530000     -72.43760000
H      -49.14390000     -31.94170000     -72.89480000
H      -48.56150000     -33.49590000     -72.93340000
S      -43.10900000     -34.30500000     -74.08780000
S      -48.98240000     -32.77490000     -70.71350000
C      -44.49860000     -35.37150000     -73.57820000
H      -45.40380000     -34.77990000     -73.70820000
H      -44.52340000     -36.20390000     -74.31840000
C      -48.75770000     -34.57600000     -70.46970000
H      -49.42150000     -35.08150000     -71.20330000
H      -49.19530000     -34.85070000     -69.49780000
C      -47.31790000     -35.03230000     -70.60940000
H      -47.23740000     -36.09510000     -70.28610000
H      -47.04120000     -34.98750000     -71.67630000
C      -44.39010000     -35.93470000     -72.01980000
H      -43.64220000     -36.72230000     -72.00320000
H      -45.25050000     -36.32580000     -71.57530000
C      -43.88450000     -34.94070000     -71.06520000
C      -42.58850000     -34.50110000     -70.99650000
C      -44.77440000     -34.31190000     -70.11540000
H      -41.86180000     -34.62890000     -71.78520000
C      -44.04490000     -33.43460000     -69.31320000
C      -46.20730000     -34.26110000     -69.84020000
C      -46.45190000     -33.39420000     -68.77520000
S      -42.39410000     -33.34560000     -69.63930000
S      -44.98330000     -32.78980000     -67.98140000
H      -47.47360000     -33.23290000     -68.24940000
