40
Properties=species:S:1:pos:R:3 #=T CELL(abcABC):=T 1.889726e+02=T 90.00000=T Traj:=T positionsangstrom=T Step:=T 0=T Bead:=T pbc="F F F"
C      -46.87040000     -30.99980000     -71.17980000
C      -47.49480000     -31.91630000     -72.06570000
C      -46.78720000     -32.41060000     -73.17470000
C      -45.43030000     -32.06680000     -73.36440000
C      -44.84350000     -31.19610000     -72.45560000
C      -45.59380000     -30.62500000     -71.41360000
H      -47.44290000     -30.63640000     -70.30960000
H      -47.25910000     -33.20470000     -73.75120000
H      -43.83030000     -30.90580000     -72.67320000
H      -45.21510000     -30.04820000     -70.54930000
C      -44.67420000     -32.54530000     -74.57700000
H      -44.12010000     -31.73220000     -75.06010000
H      -45.37200000     -32.99270000     -75.28400000
C      -49.02130000     -32.29840000     -71.88360000
H      -49.64050000     -31.40930000     -71.93210000
H      -49.34490000     -33.10200000     -72.53090000
S      -43.39330000     -33.79970000     -74.21950000
S      -49.22890000     -32.94540000     -70.13310000
C      -44.53400000     -35.21480000     -73.87510000
H      -45.59740000     -34.86330000     -73.77420000
H      -44.44800000     -35.87650000     -74.69330000
C      -48.39180000     -34.62440000     -70.28760000
H      -49.11240000     -35.23240000     -70.72420000
H      -48.23640000     -34.98910000     -69.17470000
C      -46.97530000     -34.91480000     -70.84910000
H      -46.71750000     -35.98750000     -70.93650000
H      -46.98000000     -34.59660000     -71.91010000
C      -44.21630000     -35.93110000     -72.51970000
H      -43.43520000     -36.62720000     -72.75120000
H      -45.06980000     -36.51240000     -72.23040000
C      -43.61530000     -35.06950000     -71.39370000
C      -42.29510000     -34.99060000     -71.11090000
C      -44.40720000     -34.37290000     -70.42080000
H      -41.47520000     -35.45280000     -71.66160000
C      -43.53950000     -33.67490000     -69.56240000
C      -45.79450000     -34.14550000     -70.16510000
C      -45.99140000     -33.35150000     -69.02710000
S      -41.86540000     -34.00890000     -69.79160000
S      -44.42480000     -32.77170000     -68.34770000
H      -46.96820000     -32.94890000     -68.62450000
