40
Properties=species:S:1:pos:R:3 #=T CELL(abcABC):=T 1.889726e+02=T 90.00000=T Traj:=T positionsangstrom=T Step:=T 0=T Bead:=T pbc="F F F"
C      -42.17200000     -34.08090000     -69.75250000
C      -43.24550000     -34.95400000     -69.57280000
C      -43.73980000     -35.68220000     -70.60770000
C      -43.03890000     -35.77450000     -71.84660000
C      -41.92110000     -34.89910000     -72.01920000
C      -41.48500000     -34.06370000     -71.00130000
H      -41.80280000     -33.60000000     -68.89510000
H      -44.55740000     -36.39650000     -70.44110000
H      -41.29920000     -34.89050000     -72.87160000
H      -40.59070000     -33.43030000     -71.08950000
C      -43.61500000     -36.57670000     -72.97150000
H      -44.26410000     -37.39880000     -72.68240000
H      -42.81320000     -37.13720000     -73.55930000
C      -43.74430000     -34.96450000     -68.14950000
H      -43.57600000     -35.99830000     -67.81080000
H      -43.08600000     -34.35720000     -67.50910000
S      -44.58660000     -35.48920000     -74.07570000
S      -45.47030000     -34.58700000     -67.87680000
C      -46.29840000     -35.47430000     -73.32540000
H      -47.04450000     -35.02580000     -74.11050000
H      -46.58940000     -36.44190000     -73.01780000
C      -45.76650000     -33.22650000     -69.01560000
H      -45.44580000     -33.56470000     -69.99230000
H      -45.10160000     -32.38460000     -68.66430000
C      -47.23200000     -32.90850000     -69.06050000
H      -47.73980000     -33.84760000     -69.26810000
H      -47.66060000     -32.60540000     -68.14410000
C      -46.38760000     -34.48150000     -72.20890000
H      -45.39700000     -34.70160000     -71.69000000
H      -47.18350000     -34.71620000     -71.52290000
C      -46.40370000     -33.04350000     -72.47460000
C      -46.11720000     -32.49100000     -73.75390000
C      -46.82380000     -32.02500000     -71.56080000
H      -45.66050000     -33.10940000     -74.55960000
C      -46.69380000     -30.76220000     -72.13010000
C      -47.31450000     -31.86440000     -70.19140000
C      -47.62770000     -30.59170000     -69.82810000
S      -46.24540000     -30.75180000     -73.81210000
S      -47.37500000     -29.47950000     -71.16910000
H      -48.14280000     -30.33280000     -68.87650000
