40
Properties=species:S:1:pos:R:3 #=T CELL(abcABC):=T 1.889726e+02=T 90.00000=T Traj:=T positionsangstrom=T Step:=T 0=T Bead:=T pbc="F F F"
C      -46.04070000     -31.40710000     -71.54700000
C      -46.66560000     -32.07310000     -72.60890000
C      -45.86620000     -32.72790000     -73.61390000
C      -44.50770000     -32.50290000     -73.68130000
C      -43.83600000     -31.81980000     -72.60410000
C      -44.62280000     -31.28520000     -71.61230000
H      -46.63650000     -30.95790000     -70.76420000
H      -46.32770000     -33.37450000     -74.35510000
H      -42.76270000     -31.66920000     -72.66350000
H      -44.07180000     -30.65980000     -70.85810000
C      -43.57950000     -33.15600000     -74.74220000
H      -42.78700000     -32.41980000     -74.95070000
H      -44.04250000     -33.39150000     -75.70220000
C      -48.18600000     -32.16310000     -72.68840000
H      -48.62270000     -31.16890000     -72.91500000
H      -48.48670000     -32.86490000     -73.48260000
S      -42.85240000     -34.72280000     -74.14800000
S      -49.09680000     -32.78650000     -71.17180000
C      -44.27410000     -35.55800000     -73.24370000
H      -45.18690000     -34.91200000     -73.36120000
H      -44.43270000     -36.46670000     -73.79270000
C      -48.70520000     -34.59040000     -71.14730000
H      -49.23290000     -35.08870000     -71.95240000
H      -49.18770000     -34.99550000     -70.14540000
C      -47.22470000     -34.90150000     -71.04210000
H      -47.26370000     -36.00190000     -70.90010000
H      -46.70310000     -34.68010000     -72.03600000
C      -44.02920000     -35.79750000     -71.73740000
H      -43.02570000     -36.21190000     -71.63280000
H      -44.76220000     -36.56470000     -71.44000000
C      -43.98450000     -34.65340000     -70.79100000
C      -42.76240000     -34.16150000     -70.49410000
C      -45.01990000     -34.03090000     -70.02600000
H      -41.82930000     -34.25200000     -71.07360000
C      -44.49490000     -33.12720000     -69.07220000
C      -46.47860000     -34.21070000     -69.85250000
C      -46.91870000     -33.44560000     -68.75390000
S      -42.77060000     -32.97430000     -69.19290000
S      -45.63890000     -32.50980000     -67.94730000
H      -47.96340000     -33.31310000     -68.36670000
