40
Properties=species:S:1:pos:R:3 #=T CELL(abcABC):=T 1.889726e+02=T 90.00000=T Traj:=T positionsangstrom=T Step:=T 0=T Bead:=T pbc="F F F"
C      -47.49570000     -31.09590000     -73.76980000
C      -47.56200000     -32.45710000     -73.60280000
C      -46.59260000     -33.32420000     -74.24840000
C      -45.48300000     -32.75710000     -74.88990000
C      -45.43090000     -31.33530000     -75.04270000
C      -46.40840000     -30.52060000     -74.47170000
H      -48.37980000     -30.48960000     -73.51760000
H      -46.70520000     -34.42710000     -74.20280000
H      -44.53120000     -30.92020000     -75.45850000
H      -46.39530000     -29.46630000     -74.67030000
C      -44.37750000     -33.61860000     -75.36760000
H      -44.04380000     -33.16000000     -76.28470000
H      -44.60590000     -34.69350000     -75.49740000
C      -48.75810000     -33.05410000     -72.99650000
H      -49.50920000     -32.72570000     -73.59420000
H      -48.69010000     -34.19900000     -72.94830000
S      -42.78240000     -33.42320000     -74.29400000
S      -49.11790000     -32.48620000     -71.24720000
C      -42.92700000     -34.62550000     -72.86930000
H      -42.96360000     -35.68820000     -73.11880000
H      -41.94220000     -34.50300000     -72.36630000
C      -47.79440000     -33.35650000     -70.27730000
H      -47.62670000     -34.35580000     -70.67300000
H      -48.11080000     -33.42240000     -69.29050000
C      -46.52390000     -32.49540000     -70.20070000
H      -46.07480000     -32.60690000     -71.17520000
H      -46.92270000     -31.48050000     -70.03770000
C      -43.89840000     -34.09640000     -71.82210000
H      -44.90380000     -34.40050000     -72.08150000
H      -43.79420000     -33.06360000     -71.90620000
C      -43.65830000     -34.50620000     -70.37290000
C      -42.72860000     -35.44670000     -69.95220000
C      -44.49140000     -33.93340000     -69.30510000
H      -42.03120000     -36.02620000     -70.54930000
C      -44.03850000     -34.48200000     -68.09540000
C      -45.60050000     -33.00280000     -69.17150000
C      -45.85850000     -32.76920000     -67.84100000
S      -42.71790000     -35.55310000     -68.19210000
S      -44.81100000     -33.65440000     -66.69840000
H      -46.69990000     -32.22940000     -67.50310000
