40
Properties=species:S:1:pos:R:3 #=T CELL(abcABC):=T 1.889726e+02=T 90.00000=T Traj:=T positionsangstrom=T Step:=T 0=T Bead:=T pbc="F F F"
C      -42.01370000     -34.19460000     -69.85430000
C      -43.10430000     -35.03670000     -69.57850000
C      -43.60240000     -35.92760000     -70.56190000
C      -43.05740000     -35.87660000     -71.86760000
C      -41.86720000     -35.12680000     -72.08410000
C      -41.32820000     -34.34920000     -71.12890000
H      -41.66510000     -33.50410000     -69.05440000
H      -44.43260000     -36.55970000     -70.23310000
H      -41.40830000     -35.13330000     -73.08490000
H      -40.50780000     -33.67270000     -71.37040000
C      -43.72360000     -36.66140000     -73.01560000
H      -44.37700000     -37.51430000     -72.76090000
H      -42.96350000     -36.82220000     -73.70000000
C      -43.64370000     -35.15320000     -68.09610000
H      -43.52200000     -36.19680000     -67.81780000
H      -43.01490000     -34.57630000     -67.39120000
S      -44.80370000     -35.44960000     -74.08890000
S      -45.41940000     -34.67710000     -67.70610000
C      -46.48590000     -35.42940000     -73.16540000
H      -47.18260000     -35.28900000     -73.91100000
H      -46.66830000     -36.48500000     -72.83580000
C      -45.70790000     -33.26390000     -68.85410000
H      -45.27740000     -33.46440000     -69.80650000
H      -45.08930000     -32.43330000     -68.50090000
C      -47.17330000     -32.84210000     -69.16930000
H      -47.73200000     -33.64590000     -69.66200000
H      -47.58080000     -32.54690000     -68.21990000
C      -46.73680000     -34.39580000     -72.04060000
H      -46.19020000     -34.67650000     -71.14700000
H      -47.80510000     -34.52020000     -71.74380000
C      -46.44740000     -32.95720000     -72.35880000
C      -46.06770000     -32.55090000     -73.66790000
C      -46.84560000     -31.79010000     -71.56200000
H      -45.79480000     -33.26320000     -74.43380000
C      -46.84260000     -30.57570000     -72.30820000
C      -47.12850000     -31.63320000     -70.16090000
C      -47.44860000     -30.32490000     -69.82650000
S      -46.19840000     -30.84160000     -73.95150000
S      -47.37640000     -29.24450000     -71.25550000
H      -47.69750000     -29.97110000     -68.87880000
