40
Properties=species:S:1:pos:R:3 #=T CELL(abcABC):=T 1.889726e+02=T 90.00000=T Traj:=T positionsangstrom=T Step:=T 0=T Bead:=T pbc="F F F"
C      -47.64550000     -31.10880000     -74.01110000
C      -47.62490000     -32.50760000     -73.77230000
C      -46.50140000     -33.27530000     -74.20160000
C      -45.42690000     -32.63880000     -74.82420000
C      -45.42490000     -31.26320000     -74.93540000
C      -46.57950000     -30.50360000     -74.63020000
H      -48.44630000     -30.52840000     -73.66940000
H      -46.46460000     -34.34150000     -74.03360000
H      -44.54790000     -30.82010000     -75.34070000
H      -46.49530000     -29.38750000     -74.69310000
C      -44.26100000     -33.53670000     -75.26300000
H      -43.99180000     -33.54350000     -76.28500000
H      -44.51180000     -34.63320000     -75.09020000
C      -48.76210000     -33.15910000     -73.00040000
H      -49.70540000     -33.22910000     -73.53110000
H      -48.57790000     -34.25490000     -72.90870000
S      -42.67840000     -33.31210000     -74.32780000
S      -49.04690000     -32.42160000     -71.39840000
C      -42.87870000     -34.40510000     -72.82520000
H      -43.10700000     -35.43290000     -73.15860000
H      -41.88800000     -34.48410000     -72.48120000
C      -47.80960000     -33.22070000     -70.31160000
H      -47.71150000     -34.27930000     -70.72130000
H      -48.33840000     -33.29260000     -69.35880000
C      -46.45390000     -32.58250000     -70.26590000
H      -45.84930000     -32.62050000     -71.10220000
H      -46.49100000     -31.50530000     -70.22210000
C      -43.87870000     -33.95210000     -71.79790000
H      -44.85950000     -34.44350000     -72.11810000
H      -44.05700000     -32.82370000     -71.72680000
C      -43.61040000     -34.42110000     -70.32780000
C      -42.54300000     -35.20200000     -69.89140000
C      -44.46000000     -33.97370000     -69.23950000
H      -41.84060000     -35.51960000     -70.60910000
C      -44.04080000     -34.54660000     -68.01010000
C      -45.67490000     -33.18330000     -69.09260000
C      -46.09830000     -33.17140000     -67.77970000
S      -42.59490000     -35.42740000     -68.12540000
S      -45.09350000     -34.03710000     -66.63680000
H      -46.98620000     -32.82470000     -67.41810000
