40
Properties=species:S:1:pos:R:3 #=T CELL(abcABC):=T 1.889726e+02=T 90.00000=T Traj:=T positionsangstrom=T Step:=T 0=T Bead:=T pbc="F F F"
C      -49.23080000     -35.34790000     -71.87370000
C      -48.77150000     -34.51310000     -70.82400000
C      -47.75620000     -34.97720000     -70.02830000
C      -47.18100000     -36.24870000     -70.29380000
C      -47.68360000     -37.12510000     -71.24290000
C      -48.74430000     -36.63360000     -72.08240000
H      -50.07710000     -35.06030000     -72.42640000
H      -47.36240000     -34.45080000     -69.16200000
H      -47.16630000     -38.04830000     -71.38320000
H      -49.29100000     -37.21780000     -72.93370000
C      -45.94660000     -36.67090000     -69.50820000
H      -45.69570000     -37.72860000     -69.55720000
H      -45.89120000     -36.24270000     -68.56750000
C      -49.33360000     -33.08150000     -70.80620000
H      -49.47020000     -32.81170000     -71.88370000
H      -50.36900000     -32.93570000     -70.38350000
S      -44.35400000     -35.74250000     -70.27640000
S      -48.34480000     -31.69420000     -70.07640000
C      -44.41010000     -35.65480000     -72.04740000
H      -43.46910000     -36.11020000     -72.39510000
H      -45.24180000     -36.27460000     -72.44860000
C      -46.78370000     -31.49790000     -70.93920000
H      -46.44950000     -30.44550000     -70.97340000
H      -46.81970000     -31.66720000     -72.02610000
C      -45.64350000     -32.30170000     -70.32310000
H      -45.77620000     -32.35480000     -69.25230000
H      -45.69970000     -33.28310000     -70.69680000
C      -44.75240000     -34.35460000     -72.82280000
H      -45.76600000     -33.99520000     -72.57790000
H      -44.86540000     -34.66160000     -73.88370000
C      -43.68880000     -33.25560000     -72.78800000
C      -42.62420000     -33.20480000     -73.67110000
C      -43.50310000     -32.15690000     -71.87870000
H      -42.44590000     -33.99050000     -74.38970000
C      -42.47900000     -31.30430000     -72.18410000
C      -44.28190000     -31.74890000     -70.66980000
C      -43.72040000     -30.59370000     -70.17810000
S      -41.44850000     -31.89340000     -73.45820000
S      -42.31810000     -30.01220000     -71.06540000
H      -44.06030000     -29.91710000     -69.30770000
