40
Properties=species:S:1:pos:R:3 #=T CELL(abcABC):=T 1.889726e+02=T 90.00000=T Traj:=T positionsangstrom=T Step:=T 0=T Bead:=T pbc="F F F"
C      -42.82880000     -36.48990000     -69.41190000
C      -42.94970000     -36.04580000     -70.70910000
C      -44.12060000     -36.26700000     -71.46640000
C      -45.19240000     -36.93850000     -70.90320000
C      -45.02620000     -37.48320000     -69.53060000
C      -43.83490000     -37.32040000     -68.92230000
H      -41.99390000     -36.41620000     -68.78400000
H      -44.08420000     -35.99290000     -72.50550000
H      -45.90380000     -37.86870000     -68.99380000
H      -43.72160000     -37.68880000     -67.91380000
C      -46.43190000     -37.06220000     -71.68730000
H      -46.65500000     -38.14120000     -71.78570000
H      -46.27600000     -36.66880000     -72.70390000
C      -41.77640000     -35.46920000     -71.38160000
H      -40.87370000     -35.98230000     -70.93340000
H      -41.71090000     -35.63520000     -72.45960000
S      -47.83860000     -36.16650000     -70.88880000
S      -41.47580000     -33.62770000     -70.98480000
C      -47.50730000     -34.36240000     -70.76040000
H      -48.40360000     -33.96760000     -70.39690000
H      -46.71560000     -34.27210000     -70.01350000
C      -43.04650000     -32.87960000     -71.67400000
H      -43.36440000     -33.52830000     -72.47570000
H      -42.68720000     -31.92710000     -72.16430000
C      -44.14870000     -32.47350000     -70.65870000
H      -44.73740000     -33.31150000     -70.26590000
H      -43.65420000     -32.06750000     -69.78720000
C      -47.07440000     -33.73420000     -72.16200000
H      -47.59780000     -34.22430000     -73.00960000
H      -45.95850000     -33.96450000     -72.37800000
C      -47.23660000     -32.17480000     -72.22060000
C      -48.30010000     -31.59470000     -72.82950000
C      -46.22170000     -31.23250000     -71.89220000
H      -49.11390000     -32.08320000     -73.28980000
C      -46.59350000     -29.89720000     -72.15450000
C      -44.99600000     -31.24930000     -71.10920000
C      -44.40080000     -30.04430000     -71.00440000
S      -48.13380000     -29.85530000     -73.01120000
S      -45.48840000     -28.73050000     -71.49230000
H      -43.52380000     -29.67740000     -70.54280000
