40
Properties=species:S:1:pos:R:3 #=T CELL(abcABC):=T 1.889726e+02=T 90.00000=T Traj:=T positionsangstrom=T Step:=T 0=T Bead:=T pbc="F F F"
C      -47.46010000     -31.24940000     -74.12430000
C      -47.45750000     -32.65630000     -73.90190000
C      -46.29540000     -33.41200000     -74.21540000
C      -45.12770000     -32.73500000     -74.68160000
C      -45.14530000     -31.35230000     -74.99130000
C      -46.31940000     -30.67430000     -74.62230000
H      -48.30030000     -30.55070000     -73.82950000
H      -46.23810000     -34.52210000     -74.14070000
H      -44.21830000     -30.90830000     -75.35910000
H      -46.42120000     -29.61710000     -74.76970000
C      -43.75260000     -33.34800000     -74.97850000
H      -43.33470000     -33.14700000     -76.00840000
H      -43.58590000     -34.42830000     -74.76160000
C      -48.77520000     -33.18220000     -73.38280000
H      -49.59970000     -32.91410000     -74.05130000
H      -48.76550000     -34.32360000     -73.47100000
S      -42.49130000     -32.32900000     -73.95230000
S      -49.34390000     -32.61410000     -71.62540000
C      -42.32040000     -33.15200000     -72.27550000
H      -41.86190000     -34.08680000     -72.33700000
H      -41.57160000     -32.48930000     -71.79440000
C      -48.29900000     -33.66350000     -70.51360000
H      -48.42370000     -34.64460000     -70.97780000
H      -48.83540000     -33.50430000     -69.57450000
C      -46.84640000     -33.24270000     -70.37970000
H      -46.28580000     -33.38730000     -71.31370000
H      -46.93510000     -32.16760000     -70.20600000
C      -43.57940000     -33.16240000     -71.40690000
H      -44.19620000     -33.99980000     -71.92600000
H      -44.14930000     -32.20010000     -71.52310000
C      -43.49650000     -33.59510000     -69.98620000
C      -42.29190000     -33.88750000     -69.37250000
C      -44.65400000     -34.11740000     -69.24240000
H      -41.34140000     -33.68170000     -69.94850000
C      -44.17360000     -34.79010000     -68.11010000
C      -46.11020000     -33.95610000     -69.28910000
C      -46.63020000     -34.57410000     -68.17810000
S      -42.45720000     -34.95150000     -68.03560000
S      -45.53950000     -35.35230000     -67.08930000
H      -47.69730000     -34.66310000     -67.95010000
