40
Properties=species:S:1:pos:R:3 #=T CELL(abcABC):=T 1.889726e+02=T 90.00000=T Traj:=T positionsangstrom=T Step:=T 0=T Bead:=T pbc="F F F"
C      -46.55350000     -31.39770000     -70.15110000
C      -47.04450000     -31.62500000     -71.44430000
C      -46.16670000     -31.25210000     -72.49100000
C      -44.86370000     -30.78910000     -72.29050000
C      -44.39160000     -30.71360000     -70.94210000
C      -45.27380000     -30.97100000     -69.90070000
H      -47.20760000     -31.63940000     -69.31920000
H      -46.47800000     -31.41740000     -73.53070000
H      -43.36750000     -30.38980000     -70.73600000
H      -45.02890000     -30.75830000     -68.82260000
C      -43.97270000     -30.57940000     -73.47130000
H      -43.19130000     -29.93120000     -73.15600000
H      -44.50090000     -30.09830000     -74.29790000
C      -48.32900000     -32.36050000     -71.79450000
H      -49.13380000     -31.49940000     -71.90480000
H      -48.30580000     -32.88730000     -72.75550000
S      -43.27550000     -32.22630000     -74.10760000
S      -49.05720000     -33.41820000     -70.52510000
C      -44.59680000     -33.53340000     -74.20210000
H      -45.47910000     -33.29720000     -73.57870000
H      -44.85460000     -33.75620000     -75.24690000
C      -48.69920000     -35.22450000     -71.09050000
H      -49.36990000     -35.62230000     -71.83140000
H      -48.81580000     -35.79640000     -70.15080000
C      -47.27190000     -35.45670000     -71.63790000
H      -47.21510000     -36.37640000     -72.25800000
H      -47.26400000     -34.71650000     -72.45060000
C      -44.04020000     -34.87170000     -73.67170000
H      -43.20730000     -35.14260000     -74.31680000
H      -44.77810000     -35.68270000     -73.90650000
C      -43.75410000     -34.91090000     -72.17340000
C      -42.50180000     -34.52960000     -71.78050000
C      -44.68830000     -35.00660000     -70.99360000
H      -41.69020000     -34.29390000     -72.44730000
C      -43.99840000     -34.70480000     -69.82660000
C      -46.14730000     -35.18790000     -70.64920000
C      -46.38290000     -34.98570000     -69.33150000
S      -42.33080000     -34.31220000     -70.02090000
S      -45.01860000     -34.67800000     -68.36130000
H      -47.33100000     -35.32050000     -68.90260000
