40
Properties=species:S:1:pos:R:3 #=T CELL(abcABC):=T 1.889726e+02=T 90.00000=T Traj:=T positionsangstrom=T Step:=T 0=T Bead:=T pbc="F F F"
C      -46.39150000     -31.39280000     -69.84490000
C      -47.03500000     -31.44600000     -71.04380000
C      -46.32960000     -31.20100000     -72.29660000
C      -44.97800000     -30.88750000     -72.20930000
C      -44.28240000     -30.92700000     -70.94560000
C      -44.98410000     -31.16160000     -69.76190000
H      -46.96550000     -31.52950000     -68.94820000
H      -46.88250000     -31.05630000     -73.22590000
H      -43.19210000     -30.97400000     -70.96750000
H      -44.53210000     -31.24600000     -68.80270000
C      -44.24490000     -30.59030000     -73.47690000
H      -43.67530000     -29.65610000     -73.42210000
H      -44.97070000     -30.52890000     -74.30090000
C      -48.53200000     -31.69970000     -71.17020000
H      -49.08540000     -30.91190000     -70.52090000
H      -48.79420000     -31.59270000     -72.27260000
S      -43.09820000     -32.02760000     -73.90760000
S      -49.43190000     -33.27880000     -70.67830000
C      -44.42520000     -33.16830000     -74.16090000
H      -45.35340000     -32.72730000     -73.65750000
H      -44.45590000     -33.30300000     -75.22620000
C      -48.59790000     -34.72550000     -71.57930000
H      -49.21770000     -34.98920000     -72.43250000
H      -48.92540000     -35.58710000     -71.03000000
C      -47.06880000     -34.63470000     -71.88550000
H      -46.79410000     -35.33470000     -72.66130000
H      -46.97970000     -33.60110000     -72.32810000
C      -44.11900000     -34.62360000     -73.67140000
H      -43.30720000     -35.10250000     -74.33150000
H      -45.03820000     -35.19170000     -73.88760000
C      -43.75560000     -34.85740000     -72.23140000
C      -42.43420000     -34.99530000     -71.84650000
C      -44.69040000     -34.82710000     -71.09030000
H      -41.69050000     -35.17980000     -72.59690000
C      -43.97510000     -34.96790000     -69.88750000
C      -46.09430000     -34.77680000     -70.78780000
C      -46.41610000     -34.91970000     -69.42910000
S      -42.26500000     -35.28700000     -70.12690000
S      -45.00480000     -35.06750000     -68.49610000
H      -47.45420000     -34.84870000     -69.06280000
