40
Properties=species:S:1:pos:R:3 #=T CELL(abcABC):=T 1.889726e+02=T 90.00000=T Traj:=T positionsangstrom=T Step:=T 0=T Bead:=T pbc="F F F"
C      -49.04020000     -32.70900000     -69.64480000
C      -48.39060000     -31.69370000     -70.35110000
C      -48.08110000     -31.78340000     -71.71460000
C      -48.25690000     -33.02640000     -72.38540000
C      -49.02180000     -33.98510000     -71.64970000
C      -49.49990000     -33.84130000     -70.28380000
H      -49.31320000     -32.48530000     -68.56310000
H      -47.40480000     -31.12340000     -72.13430000
H      -49.22980000     -34.76320000     -72.30060000
H      -49.86560000     -34.75610000     -69.84510000
C      -48.08550000     -32.93290000     -73.86140000
H      -48.73430000     -32.11110000     -74.29110000
H      -48.40230000     -33.87060000     -74.35000000
C      -47.89340000     -30.50150000     -69.67090000
H      -48.39900000     -29.58530000     -70.06380000
H      -48.06880000     -30.60170000     -68.64920000
S      -46.43560000     -32.40340000     -74.32420000
S      -46.04590000     -30.18630000     -69.84070000
C      -45.51180000     -33.65770000     -73.39330000
H      -45.68340000     -33.54060000     -72.27210000
H      -45.66870000     -34.65920000     -73.76490000
C      -45.35730000     -31.81870000     -69.36920000
H      -46.17130000     -32.57470000     -69.45830000
H      -45.17460000     -31.75770000     -68.29360000
C      -44.10240000     -32.06170000     -70.18520000
H      -44.28110000     -31.70400000     -71.22480000
H      -43.29150000     -31.45590000     -69.72540000
C      -44.00740000     -33.34730000     -73.55660000
H      -43.72210000     -32.36320000     -73.20310000
H      -43.72800000     -33.50210000     -74.61840000
C      -43.24310000     -34.30430000     -72.66920000
C      -42.63450000     -35.35590000     -73.24490000
C      -43.31830000     -34.45230000     -71.19430000
H      -42.42770000     -35.68260000     -74.25470000
C      -42.61870000     -35.53100000     -70.75640000
C      -43.62980000     -33.52640000     -70.10920000
C      -43.19760000     -34.06800000     -68.89120000
S      -41.96780000     -36.49080000     -72.08760000
S      -42.35240000     -35.63570000     -69.06310000
H      -43.33030000     -33.57990000     -67.92170000
