40
Properties=species:S:1:pos:R:3 #=T CELL(abcABC):=T 1.889726e+02=T 90.00000=T Traj:=T positionsangstrom=T Step:=T 0=T Bead:=T pbc="F F F"
C      -42.63340000     -36.82020000     -69.63590000
C      -42.83570000     -36.18960000     -70.91430000
C      -44.06990000     -36.31880000     -71.53430000
C      -45.14140000     -37.02350000     -70.96450000
C      -44.93250000     -37.51730000     -69.66370000
C      -43.65070000     -37.39200000     -68.98330000
H      -41.68690000     -36.76570000     -69.03570000
H      -44.34830000     -35.80730000     -72.44160000
H      -45.64540000     -38.08740000     -69.02170000
H      -43.55040000     -37.73610000     -67.96130000
C      -46.47990000     -37.16360000     -71.68160000
H      -46.86300000     -38.18470000     -71.60760000
H      -46.50060000     -36.90980000     -72.72980000
C      -41.74880000     -35.33480000     -71.53140000
H      -40.78290000     -35.68350000     -71.29090000
H      -41.87440000     -35.39390000     -72.60490000
S      -47.90940000     -36.17190000     -70.99110000
S      -41.70410000     -33.64000000     -70.85640000
C      -47.37880000     -34.39320000     -70.83700000
H      -48.27160000     -33.75930000     -70.55400000
H      -46.66190000     -34.22960000     -69.96840000
C      -43.08940000     -32.75410000     -71.66750000
H      -43.69330000     -33.44290000     -72.27120000
H      -42.76490000     -31.97290000     -72.30160000
C      -44.19320000     -32.30560000     -70.54400000
H      -44.74770000     -33.23240000     -70.39710000
H      -43.75560000     -32.20530000     -69.48830000
C      -46.97490000     -33.75190000     -72.22250000
H      -47.74040000     -34.09720000     -72.91060000
H      -46.06040000     -34.07400000     -72.57180000
C      -47.05710000     -32.26060000     -72.27190000
C      -48.09770000     -31.68550000     -72.94280000
C      -46.18920000     -31.19740000     -71.68860000
H      -48.86460000     -32.23690000     -73.35410000
C      -46.60530000     -29.87940000     -72.06030000
C      -44.94340000     -31.12380000     -70.92880000
C      -44.62560000     -29.84730000     -70.62280000
S      -48.09080000     -29.90730000     -72.93230000
S      -45.60460000     -28.57660000     -71.50230000
H      -43.70920000     -29.41460000     -70.32500000
