40
Properties=species:S:1:pos:R:3 #=T CELL(abcABC):=T 1.889726e+02=T 90.00000=T Traj:=T positionsangstrom=T Step:=T 0=T Bead:=T pbc="F F F"
C      -45.93690000     -31.44650000     -70.00680000
C      -46.79200000     -31.40760000     -71.09230000
C      -46.30280000     -31.15120000     -72.39620000
C      -44.90510000     -30.97650000     -72.59140000
C      -44.04110000     -30.98640000     -71.45300000
C      -44.54520000     -31.14840000     -70.14790000
H      -46.33520000     -31.89910000     -69.03080000
H      -47.00740000     -31.24900000     -73.25490000
H      -42.96360000     -30.86520000     -71.63900000
H      -43.93510000     -31.29770000     -69.29080000
C      -44.35880000     -30.86620000     -74.01110000
H      -43.66130000     -30.06180000     -74.15160000
H      -45.23790000     -30.72880000     -74.66060000
C      -48.23200000     -31.71670000     -71.00340000
H      -48.73320000     -30.89380000     -70.50360000
H      -48.68650000     -31.85980000     -72.04350000
S      -43.54030000     -32.44300000     -74.42180000
S      -48.82530000     -33.18340000     -69.98840000
C      -44.88550000     -33.66220000     -74.33410000
H      -45.87010000     -33.23570000     -73.93420000
H      -45.14120000     -33.93670000     -75.37920000
C      -48.71100000     -34.54070000     -71.10390000
H      -49.45330000     -34.47850000     -71.90960000
H      -49.04350000     -35.37460000     -70.53110000
C      -47.32770000     -34.82180000     -71.67720000
H      -47.44730000     -35.80030000     -72.23890000
H      -47.01880000     -33.98930000     -72.31460000
C      -44.49850000     -35.02610000     -73.58990000
H      -43.72360000     -35.38600000     -74.34580000
H      -45.36320000     -35.63600000     -73.62040000
C      -44.01200000     -34.80310000     -72.18720000
C      -42.68640000     -34.73150000     -71.88160000
C      -44.79980000     -34.88620000     -71.01040000
H      -41.82280000     -34.62180000     -72.50490000
C      -44.01720000     -34.80310000     -69.83840000
C      -46.20690000     -34.93380000     -70.60020000
C      -46.41790000     -34.95680000     -69.22180000
S      -42.34700000     -34.63670000     -70.14670000
S      -44.91900000     -34.90150000     -68.32800000
H      -47.37370000     -35.17820000     -68.76300000
