40
Properties=species:S:1:pos:R:3 #=T CELL(abcABC):=T 1.889726e+02=T 90.00000=T Traj:=T positionsangstrom=T Step:=T 0=T Bead:=T pbc="F F F"
C      -46.39090000     -31.07470000     -70.13770000
C      -47.16750000     -31.24140000     -71.28670000
C      -46.54670000     -31.16210000     -72.52530000
C      -45.16510000     -30.90080000     -72.60610000
C      -44.41440000     -30.71800000     -71.44020000
C      -45.00250000     -30.87520000     -70.20630000
H      -46.92610000     -31.11760000     -69.15710000
H      -47.15860000     -31.33970000     -73.42340000
H      -43.31480000     -30.71310000     -71.49620000
H      -44.42090000     -30.79090000     -69.33000000
C      -44.46240000     -30.92550000     -73.95900000
H      -43.85140000     -30.03910000     -74.10120000
H      -45.16080000     -31.04340000     -74.77770000
C      -48.62220000     -31.54140000     -71.21240000
H      -49.18490000     -30.55420000     -70.90690000
H      -49.03970000     -31.72750000     -72.26630000
S      -43.37690000     -32.43150000     -74.00830000
S      -48.95390000     -32.95150000     -70.01760000
C      -44.84830000     -33.57040000     -74.12370000
H      -45.52090000     -33.31140000     -73.28710000
H      -45.34060000     -33.43450000     -75.07450000
C      -48.56800000     -34.34160000     -71.00790000
H      -49.25220000     -34.34140000     -71.86250000
H      -48.75610000     -35.19040000     -70.40950000
C      -47.18400000     -34.59320000     -71.58100000
H      -47.27520000     -35.52920000     -72.12740000
H      -46.92960000     -33.81620000     -72.34990000
C      -44.29970000     -35.00740000     -73.68240000
H      -43.49120000     -35.34890000     -74.42150000
H      -45.12530000     -35.74080000     -73.80480000
C      -43.83630000     -34.98630000     -72.26480000
C      -42.46990000     -35.11420000     -72.01670000
C      -44.63220000     -34.83670000     -71.06230000
H      -41.64020000     -35.30070000     -72.69470000
C      -43.85110000     -35.02120000     -69.92380000
C      -46.05140000     -34.78320000     -70.58910000
C      -46.27490000     -34.80720000     -69.23680000
S      -42.14070000     -35.30930000     -70.23470000
S      -44.72250000     -35.05270000     -68.35690000
H      -47.11910000     -34.94260000     -68.60990000
