40
Properties=species:S:1:pos:R:3 #=T CELL(abcABC):=T 1.889726e+02=T 90.00000=T Traj:=T positionsangstrom=T Step:=T 0=T Bead:=T pbc="F F F"
C      -46.34880000     -30.98220000     -70.07060000
C      -47.14490000     -31.17690000     -71.23830000
C      -46.45930000     -31.18660000     -72.45900000
C      -45.09380000     -30.92300000     -72.56600000
C      -44.32420000     -30.78400000     -71.39060000
C      -44.94370000     -30.83970000     -70.16620000
H      -46.76950000     -31.02070000     -69.12140000
H      -46.94910000     -31.29550000     -73.45440000
H      -43.23890000     -30.57450000     -71.42690000
H      -44.37410000     -30.92180000     -69.26630000
C      -44.41230000     -30.92000000     -73.92050000
H      -43.60940000     -30.17550000     -73.98050000
H      -45.23130000     -30.71230000     -74.67020000
C      -48.59010000     -31.54140000     -71.00200000
H      -49.05810000     -30.70000000     -70.57700000
H      -49.06430000     -31.70730000     -71.92940000
S      -43.52020000     -32.50050000     -74.36760000
S      -48.97460000     -32.93960000     -69.90110000
C      -44.78140000     -33.81350000     -74.29280000
H      -45.73490000     -33.38300000     -73.91140000
H      -44.93490000     -34.06350000     -75.33780000
C      -48.53790000     -34.40780000     -71.03490000
H      -49.27100000     -34.40800000     -71.90440000
H      -48.87270000     -35.29570000     -70.45930000
C      -47.12480000     -34.47050000     -71.57890000
H      -47.19690000     -35.17620000     -72.40410000
H      -46.87470000     -33.49420000     -71.96590000
C      -44.48150000     -35.19980000     -73.63480000
H      -43.88130000     -35.89930000     -74.19150000
H      -45.39180000     -35.73700000     -73.45530000
C      -43.84990000     -35.09440000     -72.28200000
C      -42.52360000     -35.18300000     -71.94560000
C      -44.62680000     -34.90720000     -70.99020000
H      -41.62050000     -35.26550000     -72.58510000
C      -43.81640000     -34.95450000     -69.85600000
C      -46.06050000     -34.82020000     -70.57830000
C      -46.24520000     -34.83180000     -69.22930000
S      -42.10250000     -35.03870000     -70.24130000
S      -44.76400000     -35.04870000     -68.36740000
H      -47.14650000     -34.98150000     -68.65390000
