40
Properties=species:S:1:pos:R:3 #=T CELL(abcABC):=T 1.889726e+02=T 90.00000=T Traj:=T positionsangstrom=T Step:=T 0=T Bead:=T pbc="F F F"
C      -46.19290000     -30.89670000     -69.95670000
C      -47.00530000     -31.15110000     -71.10370000
C      -46.42620000     -31.08270000     -72.37500000
C      -45.04990000     -31.05390000     -72.50000000
C      -44.21570000     -30.89400000     -71.37970000
C      -44.81590000     -30.86220000     -70.11480000
H      -46.62810000     -30.95270000     -68.95450000
H      -46.97580000     -31.25460000     -73.26700000
H      -43.18400000     -30.84930000     -71.52130000
H      -44.16150000     -30.66680000     -69.22430000
C      -44.48910000     -31.10250000     -73.93000000
H      -43.78040000     -30.28060000     -74.07890000
H      -45.24160000     -30.83340000     -74.63070000
C      -48.49760000     -31.39810000     -70.99990000
H      -49.12340000     -30.58390000     -70.46000000
H      -48.95920000     -31.51900000     -72.04130000
S      -43.61200000     -32.62360000     -74.41580000
S      -48.83050000     -32.96650000     -70.03350000
C      -44.90850000     -33.92580000     -74.35560000
H      -45.75220000     -33.51430000     -73.85430000
H      -45.31360000     -34.21370000     -75.37070000
C      -48.62760000     -34.49410000     -71.22920000
H      -49.12580000     -34.30420000     -72.14540000
H      -49.07780000     -35.34710000     -70.68250000
C      -47.20520000     -34.77400000     -71.59820000
H      -47.13030000     -35.64010000     -72.24920000
H      -46.92060000     -34.00780000     -72.32060000
C      -44.31570000     -35.16020000     -73.63790000
H      -43.58150000     -35.49710000     -74.30630000
H      -45.20520000     -35.90320000     -73.58380000
C      -43.87830000     -34.92130000     -72.23390000
C      -42.57160000     -34.81870000     -71.91470000
C      -44.71880000     -34.90860000     -70.98210000
H      -41.72720000     -34.69150000     -72.56330000
C      -43.91150000     -35.02210000     -69.86420000
C      -46.09110000     -34.85070000     -70.55010000
C      -46.29510000     -34.79940000     -69.19710000
S      -42.23030000     -34.93150000     -70.17500000
S      -44.74690000     -34.98160000     -68.35090000
H      -47.25150000     -34.57310000     -68.65950000
