40
Properties=species:S:1:pos:R:3 #=T CELL(abcABC):=T 1.889726e+02=T 90.00000=T Traj:=T positionsangstrom=T Step:=T 0=T Bead:=T pbc="F F F"
C      -46.38910000     -30.98020000     -70.08500000
C      -47.00920000     -31.30360000     -71.29650000
C      -46.20690000     -31.11170000     -72.42320000
C      -44.88650000     -30.77640000     -72.40340000
C      -44.30740000     -30.48340000     -71.18950000
C      -45.10640000     -30.50850000     -69.99950000
H      -47.00700000     -30.94290000     -69.21390000
H      -46.74460000     -31.36330000     -73.38000000
H      -43.25280000     -30.17490000     -71.20040000
H      -44.60720000     -30.28860000     -69.07350000
C      -44.14670000     -30.75730000     -73.67470000
H      -43.38690000     -30.02690000     -73.71960000
H      -44.81500000     -30.57330000     -74.46940000
C      -48.49620000     -31.61250000     -71.42310000
H      -49.21310000     -30.75300000     -71.24480000
H      -48.76460000     -31.92760000     -72.55010000
S      -43.30660000     -32.37810000     -73.95120000
S      -49.10290000     -32.96350000     -70.29990000
C      -44.79760000     -33.43940000     -73.99260000
H      -45.42880000     -33.05610000     -73.14740000
H      -45.30250000     -33.42090000     -74.90300000
C      -48.65110000     -34.49010000     -71.28180000
H      -49.20800000     -34.39940000     -72.23690000
H      -49.13410000     -35.32080000     -70.81790000
C      -47.14810000     -34.50250000     -71.67740000
H      -46.99450000     -35.23220000     -72.47660000
H      -47.02870000     -33.48050000     -72.05330000
C      -44.43360000     -34.91420000     -73.68290000
H      -43.68780000     -35.11100000     -74.47690000
H      -45.33220000     -35.52350000     -73.93560000
C      -43.95030000     -35.05140000     -72.23940000
C      -42.63110000     -35.38160000     -71.95400000
C      -44.68980000     -34.95680000     -70.98220000
H      -41.87960000     -35.53110000     -72.78590000
C      -43.88610000     -35.17480000     -69.87580000
C      -46.06750000     -34.69890000     -70.62230000
C      -46.29710000     -34.83870000     -69.32120000
S      -42.26960000     -35.53890000     -70.28310000
S      -44.78740000     -35.13900000     -68.34720000
H      -47.23570000     -34.60470000     -68.81230000
