40
Properties=species:S:1:pos:R:3 #=T CELL(abcABC):=T 1.889726e+02=T 90.00000=T Traj:=T positionsangstrom=T Step:=T 0=T Bead:=T pbc="F F F"
C      -46.20140000     -31.55800000     -69.93320000
C      -46.82330000     -31.47090000     -71.18520000
C      -46.00220000     -31.34260000     -72.31460000
C      -44.59780000     -31.20140000     -72.17020000
C      -44.00300000     -31.14040000     -70.85650000
C      -44.85860000     -31.33710000     -69.74220000
H      -46.87770000     -31.64770000     -69.07770000
H      -46.41810000     -31.09480000     -73.28080000
H      -42.97580000     -31.24980000     -70.53250000
H      -44.47380000     -31.39700000     -68.72380000
C      -43.72190000     -31.03220000     -73.45380000
H      -42.70610000     -30.60420000     -73.29130000
H      -44.31260000     -30.44780000     -74.16870000
C      -48.37550000     -31.67210000     -71.35160000
H      -49.02860000     -30.73940000     -71.09370000
H      -48.53480000     -31.91960000     -72.39020000
S      -43.18250000     -32.65370000     -74.31050000
S      -49.11210000     -33.01110000     -70.33720000
C      -44.77110000     -33.66230000     -74.39270000
H      -45.54570000     -33.08440000     -73.90510000
H      -44.98750000     -33.84120000     -75.48680000
C      -48.81580000     -34.55990000     -71.27640000
H      -49.38530000     -34.60410000     -72.20940000
H      -49.21310000     -35.32930000     -70.63330000
C      -47.39140000     -34.77700000     -71.74380000
H      -47.39210000     -35.67660000     -72.31930000
H      -47.05420000     -33.99000000     -72.44730000
C      -44.56570000     -35.01970000     -73.64000000
H      -43.85670000     -35.61660000     -74.19460000
H      -45.52270000     -35.59580000     -73.81760000
C      -44.06770000     -34.88180000     -72.26420000
C      -42.74750000     -34.69830000     -71.94790000
C      -44.87180000     -34.74180000     -71.05050000
H      -41.90480000     -34.78970000     -72.68430000
C      -44.04320000     -34.62030000     -69.88330000
C      -46.28430000     -34.77810000     -70.68770000
C      -46.47530000     -34.88920000     -69.31620000
S      -42.37440000     -34.50660000     -70.20880000
S      -45.02470000     -34.79260000     -68.41240000
H      -47.36690000     -35.06690000     -68.81090000
