40
Properties=species:S:1:pos:R:3 #=T CELL(abcABC):=T 1.889726e+02=T 90.00000=T Traj:=T positionsangstrom=T Step:=T 0=T Bead:=T pbc="F F F"
C      -42.19120000     -34.54550000     -70.05130000
C      -43.25720000     -35.37380000     -69.66140000
C      -43.92330000     -36.16630000     -70.65150000
C      -43.59470000     -36.05870000     -71.98120000
C      -42.43480000     -35.38660000     -72.29210000
C      -41.75490000     -34.60250000     -71.39460000
H      -41.60770000     -34.03430000     -69.31330000
H      -44.62470000     -36.96470000     -70.29770000
H      -42.14990000     -35.44950000     -73.38620000
H      -40.85930000     -34.13720000     -71.67040000
C      -44.23890000     -36.81180000     -73.11900000
H      -44.89350000     -37.64230000     -72.73390000
H      -43.47240000     -37.19640000     -73.77470000
C      -43.70590000     -35.44040000     -68.20790000
H      -43.83650000     -36.51210000     -67.94430000
H      -42.84360000     -35.13570000     -67.62300000
S      -45.29490000     -35.67640000     -74.13730000
S      -45.30750000     -34.67530000     -67.76290000
C      -46.78030000     -35.39370000     -73.00900000
H      -47.63700000     -35.29910000     -73.69730000
H      -46.90780000     -36.35410000     -72.45120000
C      -45.13620000     -33.09950000     -68.65920000
H      -44.63640000     -33.21320000     -69.55250000
H      -44.62110000     -32.31850000     -68.06680000
C      -46.53570000     -32.70590000     -69.12270000
H      -46.96210000     -33.62350000     -69.56980000
H      -47.15280000     -32.42450000     -68.19540000
C      -46.69860000     -34.24910000     -71.99920000
H      -45.72670000     -34.51270000     -71.52280000
H      -47.54270000     -34.39360000     -71.34730000
C      -46.66690000     -32.80120000     -72.42050000
C      -46.74810000     -32.29680000     -73.69280000
C      -46.60060000     -31.66910000     -71.49570000
H      -46.79850000     -32.87400000     -74.55650000
C      -46.54840000     -30.45150000     -72.16440000
C      -46.56810000     -31.50810000     -70.04110000
C      -46.34740000     -30.17790000     -69.74650000
S      -46.72390000     -30.51040000     -73.86750000
S      -46.29360000     -29.05810000     -71.08410000
H      -46.26440000     -29.75700000     -68.74480000
