40
Properties=species:S:1:pos:R:3 #=T CELL(abcABC):=T 1.889726e+02=T 90.00000=T Traj:=T positionsangstrom=T Step:=T 0=T Bead:=T pbc="F F F"
C      -46.18560000     -31.00360000     -69.87190000
C      -46.98790000     -31.10220000     -71.05590000
C      -46.41730000     -31.03520000     -72.32560000
C      -45.01380000     -30.85680000     -72.43560000
C      -44.27920000     -30.76970000     -71.27190000
C      -44.84060000     -30.75420000     -70.03250000
H      -46.60660000     -31.01140000     -68.87910000
H      -47.02140000     -31.24940000     -73.20850000
H      -43.18730000     -30.63820000     -71.45180000
H      -44.31860000     -30.67510000     -69.10050000
C      -44.34950000     -30.84930000     -73.79060000
H      -43.55320000     -30.15210000     -73.92080000
H      -45.06500000     -30.69680000     -74.58970000
C      -48.47800000     -31.43070000     -70.88080000
H      -48.92580000     -30.62410000     -70.36780000
H      -48.93210000     -31.41690000     -71.83400000
S      -43.60620000     -32.43490000     -74.28560000
S      -48.78440000     -32.94340000     -69.74960000
C      -45.05160000     -33.60510000     -74.17880000
H      -45.74970000     -33.30200000     -73.40680000
H      -45.50930000     -33.58430000     -75.15300000
C      -48.64560000     -34.49700000     -70.83340000
H      -49.45490000     -34.43990000     -71.62380000
H      -48.84500000     -35.31870000     -70.18230000
C      -47.28800000     -34.51070000     -71.53590000
H      -47.32880000     -35.34890000     -72.27300000
H      -47.24570000     -33.58740000     -72.05130000
C      -44.64840000     -35.01870000     -73.73120000
H      -43.79130000     -35.37150000     -74.27550000
H      -45.46980000     -35.77230000     -73.88510000
C      -44.05490000     -35.14730000     -72.35790000
C      -42.80770000     -35.63960000     -72.27760000
C      -44.71090000     -34.86340000     -71.11140000
H      -42.08630000     -35.63520000     -73.05240000
C      -43.86100000     -35.08520000     -70.05180000
C      -46.04280000     -34.63900000     -70.63920000
C      -46.10180000     -34.57460000     -69.24680000
S      -42.22520000     -35.57970000     -70.63260000
S      -44.57060000     -34.86390000     -68.48120000
H      -46.93350000     -34.41870000     -68.63400000
