40
Properties=species:S:1:pos:R:3 #=T CELL(abcABC):=T 1.889726e+02=T 90.00000=T Traj:=T positionsangstrom=T Step:=T 0=T Bead:=T pbc="F F F"
C      -46.19830000     -31.30200000     -69.79380000
C      -46.94560000     -31.37730000     -70.96510000
C      -46.21300000     -31.11550000     -72.20570000
C      -44.80820000     -31.20640000     -72.27960000
C      -44.11030000     -31.20840000     -71.03480000
C      -44.81260000     -31.08610000     -69.85130000
H      -46.58710000     -31.33080000     -68.78730000
H      -46.74650000     -30.91810000     -73.12630000
H      -43.04460000     -31.33800000     -71.01310000
H      -44.34330000     -31.10510000     -68.90250000
C      -44.08630000     -30.95540000     -73.52580000
H      -43.26850000     -30.22660000     -73.46440000
H      -44.71460000     -30.66900000     -74.36360000
C      -48.46690000     -31.57490000     -71.03750000
H      -48.96180000     -30.70540000     -70.58930000
H      -48.91640000     -31.67100000     -72.08250000
S      -43.24820000     -32.49920000     -74.16670000
S      -49.07210000     -32.97720000     -70.13250000
C      -44.75960000     -33.60490000     -74.19400000
H      -45.47930000     -33.01770000     -73.60270000
H      -45.17830000     -33.48820000     -75.20100000
C      -48.79740000     -34.46510000     -71.31430000
H      -49.40230000     -34.27760000     -72.16350000
H      -49.03780000     -35.27040000     -70.65300000
C      -47.34690000     -34.77020000     -71.75220000
H      -47.34980000     -35.77290000     -72.18860000
H      -47.09090000     -34.05030000     -72.53610000
C      -44.51820000     -35.03330000     -73.71340000
H      -43.72290000     -35.42300000     -74.37070000
H      -45.44360000     -35.50680000     -73.81880000
C      -43.99650000     -35.03710000     -72.35040000
C      -42.65880000     -35.02480000     -72.09400000
C      -44.78810000     -34.89040000     -71.13280000
H      -41.93410000     -35.19410000     -72.87070000
C      -43.97400000     -34.89010000     -70.01690000
C      -46.22550000     -34.82280000     -70.74100000
C      -46.44050000     -34.72460000     -69.40740000
S      -42.24070000     -34.96680000     -70.37040000
S      -44.89890000     -34.69770000     -68.53650000
H      -47.45930000     -34.60100000     -68.94600000
