40
Properties=species:S:1:pos:R:3 #=T CELL(abcABC):=T 1.889726e+02=T 90.00000=T Traj:=T positionsangstrom=T Step:=T 0=T Bead:=T pbc="F F F"
C      -46.24750000     -31.35490000     -69.84030000
C      -46.82800000     -31.47520000     -71.10230000
C      -46.04080000     -31.32240000     -72.22130000
C      -44.65850000     -31.20240000     -72.16690000
C      -44.01800000     -31.17320000     -70.91110000
C      -44.85780000     -31.28120000     -69.80030000
H      -46.68260000     -31.48570000     -68.86190000
H      -46.53820000     -31.54040000     -73.14910000
H      -43.00890000     -30.87140000     -70.74660000
H      -44.36980000     -31.14990000     -68.87110000
C      -43.89180000     -31.00460000     -73.40310000
H      -43.05070000     -30.32090000     -73.11670000
H      -44.48880000     -30.39720000     -74.10820000
C      -48.37370000     -31.56430000     -71.23850000
H      -48.82180000     -30.71190000     -70.80820000
H      -48.65490000     -31.59060000     -72.27810000
S      -43.29820000     -32.54570000     -74.20290000
S      -49.01100000     -33.02870000     -70.23120000
C      -44.69500000     -33.70640000     -74.45520000
H      -45.64420000     -33.31610000     -74.01550000
H      -44.91830000     -33.95010000     -75.44630000
C      -48.74510000     -34.44330000     -71.28260000
H      -49.49400000     -34.41900000     -72.17070000
H      -49.11440000     -35.27620000     -70.75580000
C      -47.34460000     -34.76890000     -71.82030000
H      -47.43610000     -35.71090000     -72.44140000
H      -47.07390000     -33.92880000     -72.50370000
C      -44.51150000     -35.04400000     -73.72980000
H      -43.87270000     -35.72630000     -74.31220000
H      -45.45860000     -35.62600000     -73.71240000
C      -44.03000000     -34.94950000     -72.28190000
C      -42.71190000     -34.82190000     -72.00300000
C      -44.84200000     -34.83680000     -71.08190000
H      -41.85640000     -34.76920000     -72.66810000
C      -44.02690000     -34.73810000     -69.97000000
C      -46.24580000     -34.82430000     -70.74490000
C      -46.54230000     -34.76830000     -69.40780000
S      -42.34530000     -34.69920000     -70.26780000
S      -45.02780000     -34.76490000     -68.47850000
H      -47.50890000     -34.76610000     -68.91620000
