40
Properties=species:S:1:pos:R:3 #=T CELL(abcABC):=T 1.889726e+02=T 90.00000=T Traj:=T positionsangstrom=T Step:=T 0=T Bead:=T pbc="F F F"
C      -45.34520000     -31.35520000     -70.15630000
C      -46.28230000     -31.02140000     -71.22090000
C      -45.85420000     -30.94870000     -72.54150000
C      -44.47150000     -31.07590000     -72.81810000
C      -43.59960000     -31.43170000     -71.82470000
C      -44.03410000     -31.63180000     -70.51250000
H      -45.82830000     -31.51340000     -69.26060000
H      -46.58830000     -30.69970000     -73.32480000
H      -42.60190000     -31.69820000     -72.21900000
H      -43.30930000     -32.04870000     -69.76420000
C      -43.93620000     -31.14560000     -74.20980000
H      -43.02310000     -30.71510000     -74.27050000
H      -44.52080000     -30.64560000     -74.97480000
C      -47.71480000     -30.79120000     -70.86200000
H      -47.75570000     -29.80890000     -70.45500000
H      -48.35660000     -30.78070000     -71.76960000
S      -43.77630000     -32.92820000     -74.75710000
S      -48.44730000     -31.98870000     -69.62850000
C      -45.36640000     -33.71190000     -74.21370000
H      -45.93070000     -33.10470000     -73.48160000
H      -45.92630000     -33.93480000     -75.07810000
C      -48.80050000     -33.37150000     -70.72830000
H      -49.42390000     -33.08470000     -71.57450000
H      -49.37490000     -34.07560000     -70.06810000
C      -47.51060000     -34.01660000     -71.29950000
H      -47.83900000     -34.69550000     -72.06740000
H      -46.90930000     -33.24760000     -71.83050000
C      -45.16450000     -35.07810000     -73.49920000
H      -44.64610000     -35.81830000     -74.08910000
H      -46.14880000     -35.57680000     -73.39080000
C      -44.44170000     -34.93610000     -72.15790000
C      -43.09730000     -35.27120000     -72.01800000
C      -45.12890000     -34.92340000     -70.83510000
H      -42.31470000     -35.44510000     -72.73890000
C      -44.25270000     -35.32000000     -69.80630000
C      -46.46750000     -34.63670000     -70.32910000
C      -46.49090000     -34.67680000     -68.97210000
S      -42.69080000     -35.65710000     -70.36220000
S      -45.02020000     -35.32210000     -68.23620000
H      -47.24130000     -34.44890000     -68.30040000
