40
Properties=species:S:1:pos:R:3 #=T CELL(abcABC):=T 1.889726e+02=T 90.00000=T Traj:=T positionsangstrom=T Step:=T 0=T Bead:=T pbc="F F F"
C      -45.82680000     -31.22350000     -69.92700000
C      -46.73100000     -31.22560000     -71.03760000
C      -46.15690000     -31.20140000     -72.33370000
C      -44.76000000     -31.14050000     -72.55230000
C      -43.95470000     -31.28350000     -71.45890000
C      -44.46170000     -31.25070000     -70.15930000
H      -46.17430000     -31.23460000     -68.86480000
H      -46.83330000     -31.23150000     -73.18380000
H      -42.87280000     -31.37040000     -71.51720000
H      -43.74690000     -31.40570000     -69.30750000
C      -44.28380000     -31.10280000     -73.94590000
H      -43.44650000     -30.38800000     -74.10260000
H      -45.19760000     -30.89850000     -74.51790000
C      -48.21990000     -31.20140000     -70.84740000
H      -48.38440000     -30.26270000     -70.24670000
H      -48.77390000     -31.03040000     -71.77720000
S      -43.64320000     -32.83390000     -74.47920000
S      -48.88260000     -32.56300000     -69.69960000
C      -45.26180000     -33.72430000     -74.32430000
H      -45.84530000     -33.03720000     -73.72770000
H      -45.71650000     -34.00510000     -75.31900000
C      -48.71880000     -34.08550000     -70.78810000
H      -49.43070000     -34.02370000     -71.62570000
H      -49.02850000     -34.89130000     -70.15640000
C      -47.38360000     -34.42030000     -71.48970000
H      -47.46250000     -35.32900000     -72.16860000
H      -47.09780000     -33.63140000     -72.12690000
C      -44.97760000     -35.09650000     -73.62960000
H      -44.29250000     -35.56730000     -74.33210000
H      -45.82610000     -35.83850000     -73.58140000
C      -44.27470000     -34.90800000     -72.30420000
C      -42.94770000     -35.22020000     -72.26870000
C      -44.83130000     -34.68170000     -70.95750000
H      -42.30500000     -35.32040000     -73.10250000
C      -43.88810000     -34.79500000     -69.98650000
C      -46.21280000     -34.64020000     -70.48380000
C      -46.25060000     -34.61540000     -69.07770000
S      -42.24990000     -35.32580000     -70.60800000
S      -44.65820000     -34.90710000     -68.37620000
H      -47.13500000     -34.71380000     -68.45870000
