40
Properties=species:S:1:pos:R:3 #=T CELL(abcABC):=T 1.889726e+02=T 90.00000=T Traj:=T positionsangstrom=T Step:=T 0=T Bead:=T pbc="F F F"
C      -47.31450000     -34.41940000     -72.41700000
C      -47.95480000     -33.37730000     -71.70250000
C      -47.98010000     -33.34130000     -70.33080000
C      -47.51700000     -34.43040000     -69.61790000
C      -46.99870000     -35.53780000     -70.30430000
C      -46.83160000     -35.46340000     -71.68160000
H      -47.27300000     -34.36990000     -73.47540000
H      -48.31410000     -32.47010000     -69.76970000
H      -46.48080000     -36.31160000     -69.72310000
H      -46.31170000     -36.29900000     -72.13590000
C      -47.50080000     -34.35840000     -68.08390000
H      -47.21100000     -35.31970000     -67.70930000
H      -48.48310000     -34.21550000     -67.58470000
C      -48.62310000     -32.34360000     -72.48530000
H      -49.16510000     -32.74980000     -73.27840000
H      -49.23410000     -31.74680000     -71.92950000
S      -46.28410000     -33.11120000     -67.39530000
S      -47.29320000     -31.38900000     -73.43530000
C      -44.76240000     -33.64740000     -68.32670000
H      -43.96790000     -33.74490000     -67.53160000
H      -44.81230000     -34.67900000     -68.73310000
C      -46.22660000     -30.55490000     -72.08140000
H      -46.42050000     -30.93090000     -71.10710000
H      -46.41960000     -29.54680000     -72.17220000
C      -44.73480000     -30.84520000     -72.30810000
H      -44.38050000     -30.13600000     -73.01760000
H      -44.31370000     -30.51980000     -71.36990000
C      -44.20920000     -32.56600000     -69.31140000
H      -43.39930000     -32.01180000     -68.81460000
H      -44.91320000     -31.80610000     -69.63130000
C      -43.42110000     -33.29830000     -70.42100000
C      -42.54940000     -34.37670000     -70.10190000
C      -43.58800000     -33.16510000     -71.82440000
H      -42.34870000     -34.61690000     -69.09120000
C      -42.94400000     -34.22770000     -72.57080000
C      -44.17850000     -32.16260000     -72.73930000
C      -43.93060000     -32.51520000     -74.06580000
S      -42.11240000     -35.37000000     -71.51750000
S      -43.00510000     -33.98080000     -74.33390000
H      -44.33680000     -31.92880000     -74.86450000
