40
Properties=species:S:1:pos:R:3 #=T CELL(abcABC):=T 1.889726e+02=T 90.00000=T Traj:=T positionsangstrom=T Step:=T 0=T Bead:=T pbc="F F F"
C      -47.51500000     -34.48850000     -72.31460000
C      -48.05500000     -33.37730000     -71.68820000
C      -48.22360000     -33.38310000     -70.27580000
C      -47.57290000     -34.33210000     -69.49610000
C      -46.89030000     -35.36330000     -70.18210000
C      -46.98840000     -35.54200000     -71.55450000
H      -47.39260000     -34.43890000     -73.42250000
H      -48.87740000     -32.61700000     -69.74620000
H      -46.46520000     -36.18320000     -69.65300000
H      -46.59960000     -36.41810000     -71.97990000
C      -47.48100000     -34.14220000     -68.00130000
H      -47.28990000     -35.08860000     -67.46280000
H      -48.42820000     -33.67630000     -67.63670000
C      -48.47680000     -32.14750000     -72.48300000
H      -49.28890000     -32.36790000     -73.25360000
H      -48.77210000     -31.34000000     -71.70980000
S      -46.29470000     -32.83150000     -67.52180000
S      -47.06560000     -31.28510000     -73.42940000
C      -44.66930000     -33.38310000     -68.16870000
H      -43.97860000     -33.32370000     -67.34020000
H      -44.86100000     -34.41940000     -68.43790000
C      -46.03820000     -30.93290000     -71.94630000
H      -46.22670000     -31.78500000     -71.15490000
H      -46.43780000     -29.98040000     -71.47960000
C      -44.59560000     -30.83510000     -72.32580000
H      -44.42220000     -30.11570000     -73.16960000
H      -43.91960000     -30.51860000     -71.50270000
C      -44.34490000     -32.65870000     -69.50660000
H      -43.89020000     -31.67360000     -69.34010000
H      -45.26570000     -32.61190000     -70.04260000
C      -43.48430000     -33.48250000     -70.50280000
C      -42.77670000     -34.65750000     -70.16340000
C      -43.45800000     -33.24000000     -71.88360000
H      -42.66540000     -35.19660000     -69.21800000
C      -42.86830000     -34.28350000     -72.63990000
C      -44.03500000     -32.21550000     -72.72120000
C      -43.93510000     -32.55400000     -74.06870000
S      -42.06890000     -35.42940000     -71.56270000
S      -43.17500000     -34.15240000     -74.35080000
H      -44.17900000     -31.88060000     -74.95470000
