40
Properties=species:S:1:pos:R:3 #=T CELL(abcABC):=T 1.889726e+02=T 90.00000=T Traj:=T positionsangstrom=T Step:=T 0=T Bead:=T pbc="F F F"
C      -42.47340000     -34.94510000     -70.05550000
C      -43.64540000     -35.64650000     -69.70820000
C      -44.41950000     -36.09240000     -70.79300000
C      -43.93650000     -36.01750000     -72.10890000
C      -42.86650000     -35.21480000     -72.39810000
C      -42.12250000     -34.62620000     -71.36050000
H      -41.84300000     -34.55930000     -69.23650000
H      -45.33560000     -36.64420000     -70.59470000
H      -42.65210000     -35.18220000     -73.42370000
H      -41.13580000     -34.03670000     -71.53940000
C      -44.68120000     -36.68850000     -73.28560000
H      -45.40670000     -37.45370000     -72.98310000
H      -43.91560000     -37.20700000     -73.86800000
C      -43.89400000     -35.93340000     -68.24990000
H      -44.15250000     -36.95220000     -68.04540000
H      -42.98770000     -35.86820000     -67.62780000
S      -45.62030000     -35.49200000     -74.36880000
S      -44.99040000     -34.62510000     -67.43300000
C      -47.02260000     -35.17330000     -73.12440000
H      -47.84180000     -34.70150000     -73.74960000
H      -47.35460000     -36.20020000     -72.75500000
C      -44.74870000     -33.23380000     -68.55100000
H      -44.07280000     -33.61710000     -69.37600000
H      -44.17640000     -32.44200000     -68.08530000
C      -46.13240000     -32.61500000     -69.04340000
H      -46.60110000     -33.48970000     -69.49290000
H      -46.69490000     -32.51630000     -68.17120000
C      -46.79560000     -34.16780000     -71.98950000
H      -45.94210000     -34.53740000     -71.44010000
H      -47.63830000     -34.31270000     -71.27560000
C      -46.64560000     -32.76530000     -72.37480000
C      -46.73590000     -32.32480000     -73.66240000
C      -46.45530000     -31.64940000     -71.47410000
H      -46.99800000     -32.90710000     -74.55660000
C      -46.45130000     -30.41310000     -72.11810000
C      -46.18880000     -31.49120000     -69.99480000
C      -45.81420000     -30.16440000     -69.68760000
S      -46.45700000     -30.59320000     -73.87970000
S      -46.00530000     -29.03380000     -71.05520000
H      -45.71850000     -29.76320000     -68.67560000
