40
Properties=species:S:1:pos:R:3 #=T CELL(abcABC):=T 1.889726e+02=T 90.00000=T Traj:=T positionsangstrom=T Step:=T 0=T Bead:=T pbc="F F F"
C      -45.33870000     -31.36340000     -70.13400000
C      -46.26610000     -31.06730000     -71.15670000
C      -45.72090000     -30.87170000     -72.43810000
C      -44.39010000     -31.21460000     -72.72220000
C      -43.54840000     -31.70560000     -71.71120000
C      -44.03260000     -31.78210000     -70.38520000
H      -45.77990000     -31.33000000     -69.05370000
H      -46.42880000     -30.55110000     -73.24530000
H      -42.54460000     -31.99150000     -71.94600000
H      -43.35080000     -32.07720000     -69.58200000
C      -43.95970000     -31.25250000     -74.16520000
H      -43.07970000     -30.65950000     -74.52150000
H      -44.69020000     -30.76390000     -74.76020000
C      -47.71140000     -30.77390000     -70.79970000
H      -47.81610000     -29.76080000     -70.43280000
H      -48.27170000     -30.91260000     -71.66820000
S      -43.57300000     -32.95480000     -74.69600000
S      -48.38730000     -31.90190000     -69.47420000
C      -45.25750000     -33.70980000     -74.34190000
H      -45.72660000     -32.98370000     -73.69880000
H      -45.89920000     -33.72300000     -75.23870000
C      -48.80040000     -33.41540000     -70.51670000
H      -49.64350000     -33.08700000     -71.14160000
H      -49.13530000     -34.16000000     -69.75520000
C      -47.67440000     -34.04400000     -71.28610000
H      -48.03300000     -34.81980000     -71.91730000
H      -47.30250000     -33.29550000     -71.98810000
C      -45.06680000     -35.08810000     -73.72770000
H      -44.32840000     -35.65700000     -74.32760000
H      -46.00190000     -35.64740000     -73.78560000
C      -44.56790000     -35.10490000     -72.23540000
C      -43.24010000     -35.50450000     -72.11170000
C      -45.24680000     -34.96560000     -70.97710000
H      -42.57250000     -35.79020000     -72.89640000
C      -44.40430000     -35.24730000     -69.92230000
C      -46.53770000     -34.52330000     -70.44840000
C      -46.54380000     -34.53370000     -69.10340000
S      -42.79270000     -35.73400000     -70.39460000
S      -45.04180000     -34.99150000     -68.36080000
H      -47.42390000     -34.30250000     -68.43320000
