40
Properties=species:S:1:pos:R:3 #=T CELL(abcABC):=T 1.889726e+02=T 90.00000=T Traj:=T positionsangstrom=T Step:=T 0=T Bead:=T pbc="F F F"
C      -45.05380000     -31.49430000     -69.73970000
C      -45.92440000     -31.13290000     -70.79470000
C      -45.40280000     -30.94960000     -72.08110000
C      -44.12670000     -31.30490000     -72.40100000
C      -43.29890000     -31.72230000     -71.31620000
C      -43.67970000     -31.80030000     -70.00960000
H      -45.60150000     -31.64330000     -68.84280000
H      -46.15450000     -30.62200000     -72.84030000
H      -42.30630000     -32.08290000     -71.70260000
H      -42.93940000     -32.11130000     -69.23040000
C      -43.59610000     -31.35150000     -73.79690000
H      -42.57090000     -31.07980000     -73.95130000
H      -44.08580000     -30.75350000     -74.56280000
C      -47.36170000     -30.67160000     -70.57110000
H      -47.39540000     -29.62960000     -70.16660000
H      -47.79740000     -30.65980000     -71.58660000
S      -43.64400000     -33.08020000     -74.44040000
S      -48.50310000     -31.63760000     -69.45030000
C      -45.44410000     -33.50100000     -74.52790000
H      -46.04560000     -32.67200000     -74.04150000
H      -45.76370000     -33.74710000     -75.54150000
C      -48.94630000     -33.19590000     -70.34460000
H      -49.72060000     -32.96170000     -71.06880000
H      -49.42270000     -33.87180000     -69.67010000
C      -47.85040000     -33.95480000     -71.16430000
H      -48.32470000     -34.81700000     -71.73430000
H      -47.51350000     -33.31310000     -71.98350000
C      -45.82000000     -34.79170000     -73.71800000
H      -45.68180000     -35.64120000     -74.37900000
H      -46.87220000     -34.72080000     -73.43470000
C      -45.00130000     -35.16450000     -72.51980000
C      -43.79680000     -35.76950000     -72.62720000
C      -45.37690000     -34.86460000     -71.15860000
H      -43.20610000     -35.87430000     -73.49330000
C      -44.30770000     -35.25420000     -70.28980000
C      -46.61750000     -34.42220000     -70.42040000
C      -46.43870000     -34.64010000     -69.07220000
S      -42.91690000     -35.91440000     -71.11480000
S      -44.81230000     -35.03860000     -68.58860000
H      -47.18070000     -34.65740000     -68.31240000
