40
Properties=species:S:1:pos:R:3 #=T CELL(abcABC):=T 1.889726e+02=T 90.00000=T Traj:=T positionsangstrom=T Step:=T 0=T Bead:=T pbc="F F F"
C      -44.84260000     -31.63730000     -69.59110000
C      -45.45820000     -30.98560000     -70.62300000
C      -44.80590000     -30.82290000     -71.89400000
C      -43.57070000     -31.48050000     -72.17290000
C      -42.97800000     -32.30110000     -71.15970000
C      -43.61030000     -32.33230000     -69.85280000
H      -45.28530000     -31.71850000     -68.61370000
H      -45.23090000     -30.29270000     -72.77440000
H      -42.07310000     -32.81610000     -71.28290000
H      -43.16400000     -32.98640000     -69.17250000
C      -43.08720000     -31.51710000     -73.61600000
H      -42.04770000     -31.44920000     -73.67250000
H      -43.57370000     -30.70410000     -74.20870000
C      -46.78700000     -30.22840000     -70.31160000
H      -46.74370000     -29.39770000     -69.63840000
H      -47.39090000     -29.94130000     -71.15940000
S      -43.43970000     -33.19560000     -74.32380000
S      -48.02490000     -31.30800000     -69.41960000
C      -45.24310000     -33.37420000     -74.44480000
H      -45.60110000     -32.62110000     -73.73890000
H      -45.61860000     -33.19580000     -75.45870000
C      -48.65740000     -32.37900000     -70.88760000
H      -49.24680000     -31.83770000     -71.61060000
H      -49.31300000     -33.09320000     -70.39900000
C      -47.64880000     -33.25760000     -71.65060000
H      -48.28420000     -34.00310000     -72.21760000
H      -47.05600000     -32.81100000     -72.44350000
C      -45.72580000     -34.82960000     -73.99110000
H      -45.48910000     -35.54410000     -74.80600000
H      -46.86970000     -34.84980000     -73.90450000
C      -45.21850000     -35.13600000     -72.59750000
C      -44.01960000     -35.81650000     -72.53330000
C      -45.77670000     -34.92120000     -71.29400000
H      -43.41490000     -35.97080000     -73.37710000
C      -45.02490000     -35.58300000     -70.32730000
C      -46.81410000     -34.14360000     -70.73160000
C      -46.88640000     -34.20550000     -69.32350000
S      -43.66950000     -36.46610000     -70.97020000
S      -45.58920000     -35.20620000     -68.68990000
H      -47.73500000     -33.88190000     -68.77730000
