40
Properties=species:S:1:pos:R:3 #=T CELL(abcABC):=T 1.889726e+02=T 90.00000=T Traj:=T positionsangstrom=T Step:=T 0=T Bead:=T pbc="F F F"
C      -46.50390000     -34.63800000     -73.19570000
C      -47.58420000     -34.25420000     -72.36160000
C      -47.83060000     -34.84890000     -71.14110000
C      -46.97980000     -35.89750000     -70.76830000
C      -45.91020000     -36.31990000     -71.55480000
C      -45.67700000     -35.70750000     -72.78870000
H      -46.38050000     -34.10090000     -74.06650000
H      -48.58960000     -34.33040000     -70.57460000
H      -45.47660000     -37.26320000     -71.31190000
H      -44.75620000     -35.96650000     -73.36210000
C      -47.12400000     -36.59170000     -69.48920000
H      -46.51250000     -37.48420000     -69.48960000
H      -48.14290000     -36.89700000     -69.33580000
C      -48.40260000     -33.00130000     -72.83980000
H      -48.75220000     -33.17100000     -73.81120000
H      -49.31370000     -32.92970000     -72.26040000
S      -46.55470000     -35.59160000     -68.00620000
S      -47.38950000     -31.46220000     -72.85320000
C      -44.97190000     -34.93360000     -68.59560000
H      -44.30910000     -34.90220000     -67.81560000
H      -44.51600000     -35.57700000     -69.32350000
C      -47.12900000     -31.15620000     -71.05010000
H      -47.25790000     -32.16290000     -70.59980000
H      -48.01050000     -30.58090000     -70.59090000
C      -45.77910000     -30.49150000     -70.68530000
H      -45.84710000     -29.41610000     -70.82130000
H      -45.58880000     -30.75730000     -69.61400000
C      -44.94750000     -33.46850000     -69.18550000
H      -44.96650000     -32.73500000     -68.40730000
H      -45.95900000     -33.29400000     -69.63640000
C      -43.94340000     -33.28950000     -70.30200000
C      -43.01850000     -34.24330000     -70.55060000
C      -43.85660000     -32.15920000     -71.21570000
H      -42.71910000     -35.08920000     -69.99800000
C      -42.81480000     -32.34400000     -72.11070000
C      -44.67840000     -30.96890000     -71.54450000
C      -44.08070000     -30.27140000     -72.54310000
S      -41.95270000     -33.84450000     -71.85540000
S      -42.69230000     -31.07600000     -73.32150000
H      -44.43790000     -29.32810000     -73.01470000
