40
Properties=species:S:1:pos:R:3 #=T CELL(abcABC):=T 1.889726e+02=T 90.00000=T Traj:=T positionsangstrom=T Step:=T 0=T Bead:=T pbc="F F F"
C      -46.45640000     -34.69830000     -73.06300000
C      -47.59140000     -34.11990000     -72.46000000
C      -47.98720000     -34.42670000     -71.18910000
C      -47.25960000     -35.47800000     -70.57330000
C      -46.19830000     -36.13060000     -71.19390000
C      -45.72820000     -35.70980000     -72.46670000
H      -46.12590000     -34.40890000     -74.04700000
H      -48.70830000     -33.78360000     -70.59610000
H      -45.72700000     -36.93530000     -70.67170000
H      -45.03070000     -36.25490000     -73.15940000
C      -47.69340000     -35.85970000     -69.11810000
H      -47.79530000     -36.92480000     -69.04950000
H      -48.68760000     -35.39570000     -68.87920000
C      -48.19430000     -33.00150000     -73.25680000
H      -47.93070000     -33.15760000     -74.25940000
H      -49.23430000     -33.13490000     -73.24890000
S      -46.56670000     -35.19510000     -67.79200000
S      -47.72870000     -31.24970000     -72.76200000
C      -44.96990000     -34.80960000     -68.62770000
H      -44.27790000     -34.96570000     -67.82450000
H      -44.80650000     -35.50940000     -69.44660000
C      -47.11210000     -31.41150000     -71.00780000
H      -47.17970000     -32.48720000     -70.68650000
H      -47.79850000     -30.86980000     -70.33340000
C      -45.72580000     -30.71550000     -70.91120000
H      -45.96490000     -29.64600000     -71.22870000
H      -45.53720000     -30.57840000     -69.84940000
C      -44.63190000     -33.40440000     -69.13660000
H      -44.09660000     -32.81760000     -68.42880000
H      -45.48430000     -32.86100000     -69.40920000
C      -43.76740000     -33.48850000     -70.32810000
C      -42.72460000     -34.40370000     -70.51890000
C      -43.79750000     -32.53340000     -71.43480000
H      -42.35040000     -35.15200000     -69.84650000
C      -42.74530000     -32.69580000     -72.30620000
C      -44.61320000     -31.34370000     -71.77980000
C      -44.00000000     -30.57850000     -72.71370000
S      -41.70390000     -34.08130000     -71.92900000
S      -42.61600000     -31.41030000     -73.49230000
H      -44.39860000     -29.63800000     -73.06470000
