40
Properties=species:S:1:pos:R:3 #=T CELL(abcABC):=T 1.889726e+02=T 90.00000=T Traj:=T positionsangstrom=T Step:=T 0=T Bead:=T pbc="F F F"
C      -46.49570000     -34.71680000     -73.13980000
C      -47.47660000     -34.11930000     -72.37200000
C      -47.87210000     -34.62720000     -71.12520000
C      -47.22140000     -35.77140000     -70.62200000
C      -46.20680000     -36.33870000     -71.41310000
C      -45.83730000     -35.82910000     -72.65210000
H      -46.23950000     -34.22270000     -73.98760000
H      -48.68890000     -34.19680000     -70.55100000
H      -45.70550000     -37.27190000     -71.09010000
H      -45.10500000     -36.40520000     -73.28680000
C      -47.46940000     -36.34780000     -69.30880000
H      -47.00610000     -37.32720000     -69.26740000
H      -48.58220000     -36.37140000     -69.18920000
C      -48.19940000     -32.95790000     -72.99480000
H      -48.34720000     -33.01580000     -74.09600000
H      -49.10400000     -32.64210000     -72.51800000
S      -46.70200000     -35.41800000     -67.94200000
S      -47.29140000     -31.28570000     -72.85450000
C      -44.94960000     -34.92530000     -68.58000000
H      -44.25460000     -35.03970000     -67.65660000
H      -44.85100000     -35.75360000     -69.31140000
C      -47.04840000     -31.25570000     -71.00020000
H      -47.07680000     -32.26730000     -70.52500000
H      -47.99550000     -30.70790000     -70.63130000
C      -45.74150000     -30.65530000     -70.59660000
H      -45.90280000     -29.48520000     -70.75930000
H      -45.56810000     -30.90830000     -69.54670000
C      -44.85580000     -33.57160000     -69.32300000
H      -44.71740000     -32.74820000     -68.55300000
H      -45.75120000     -33.35250000     -69.85220000
C      -43.78960000     -33.45250000     -70.34620000
C      -42.70620000     -34.28360000     -70.57850000
C      -43.82760000     -32.39350000     -71.32800000
H      -42.44790000     -35.19610000     -69.94580000
C      -42.78730000     -32.44940000     -72.22540000
C      -44.65070000     -31.16910000     -71.49240000
C      -44.24230000     -30.49960000     -72.62770000
S      -41.68880000     -33.73640000     -71.85830000
S      -42.83800000     -31.22750000     -73.46280000
H      -44.65500000     -29.55290000     -73.02180000
