40
Properties=species:S:1:pos:R:3 #=T CELL(abcABC):=T 1.889726e+02=T 90.00000=T Traj:=T positionsangstrom=T Step:=T 0=T Bead:=T pbc="F F F"
C      -46.38850000     -34.38720000     -73.35800000
C      -47.51430000     -34.13630000     -72.49400000
C      -47.75290000     -34.95670000     -71.39260000
C      -46.81740000     -35.92960000     -70.97540000
C      -45.76040000     -36.21870000     -71.82440000
C      -45.52650000     -35.46740000     -73.04170000
H      -46.10450000     -33.62120000     -74.02830000
H      -48.66810000     -34.87270000     -70.77830000
H      -45.07350000     -37.02000000     -71.62160000
H      -44.72530000     -35.86160000     -73.70650000
C      -46.97320000     -36.61770000     -69.67560000
H      -46.22480000     -37.40250000     -69.49050000
H      -47.95690000     -37.07540000     -69.45930000
C      -48.54980000     -33.05870000     -72.82500000
H      -48.85560000     -33.23980000     -73.87960000
H      -49.42550000     -33.09180000     -72.07270000
S      -46.83220000     -35.56350000     -68.18070000
S      -47.60800000     -31.40970000     -72.64510000
C      -45.06440000     -35.08440000     -68.63750000
H      -44.43740000     -35.11820000     -67.67920000
H      -44.75360000     -35.77310000     -69.48750000
C      -47.13270000     -31.47860000     -70.88410000
H      -46.89910000     -32.45550000     -70.72970000
H      -47.93340000     -31.22770000     -70.20060000
C      -45.86510000     -30.68910000     -70.59830000
H      -45.90570000     -29.60460000     -70.62740000
H      -45.67330000     -30.88880000     -69.51000000
C      -45.07780000     -33.76340000     -69.37200000
H      -45.28340000     -33.00820000     -68.64020000
H      -45.97630000     -33.77690000     -70.00650000
C      -43.95160000     -33.48610000     -70.39010000
C      -42.84470000     -34.31920000     -70.58570000
C      -43.85940000     -32.30250000     -71.13860000
H      -42.60300000     -35.20680000     -69.97570000
C      -42.74430000     -32.31330000     -72.03510000
C      -44.66250000     -31.08750000     -71.35380000
C      -44.08360000     -30.25300000     -72.27230000
S      -41.71280000     -33.67520000     -71.74470000
S      -42.70120000     -30.88380000     -73.10340000
H      -44.50510000     -29.31290000     -72.56240000
