40
Properties=species:S:1:pos:R:3 #=T CELL(abcABC):=T 1.889726e+02=T 90.00000=T Traj:=T positionsangstrom=T Step:=T 0=T Bead:=T pbc="F F F"
C      -44.97090000     -31.51260000     -69.60850000
C      -45.56070000     -30.82570000     -70.73100000
C      -44.79030000     -30.82390000     -71.92970000
C      -43.68730000     -31.65850000     -72.03120000
C      -43.13110000     -32.36640000     -70.93800000
C      -43.76670000     -32.17990000     -69.72010000
H      -45.44700000     -31.53080000     -68.61710000
H      -45.18760000     -30.23270000     -72.76170000
H      -42.27190000     -33.02600000     -71.10400000
H      -43.32640000     -32.66940000     -68.83700000
C      -42.98450000     -31.73460000     -73.39790000
H      -41.88290000     -31.59690000     -73.35000000
H      -43.35650000     -30.84830000     -73.96880000
C      -46.86560000     -30.08490000     -70.53390000
H      -46.71400000     -29.16340000     -69.92640000
H      -47.14010000     -29.68620000     -71.52910000
S      -43.32180000     -33.21920000     -74.41120000
S      -48.12020000     -31.00610000     -69.68440000
C      -45.18050000     -33.47240000     -74.45620000
H      -45.53930000     -32.64260000     -73.92720000
H      -45.46230000     -33.32120000     -75.54550000
C      -48.49090000     -32.34770000     -70.98340000
H      -49.12800000     -31.88400000     -71.76060000
H      -49.15840000     -32.97260000     -70.40030000
C      -47.37010000     -33.08800000     -71.66360000
H      -47.85790000     -33.55830000     -72.57430000
H      -46.71480000     -32.47130000     -72.25920000
C      -45.65480000     -34.83910000     -73.91050000
H      -45.59350000     -35.56850000     -74.68700000
H      -46.70260000     -34.66330000     -73.71450000
C      -45.01150000     -35.20390000     -72.61590000
C      -43.89060000     -35.95040000     -72.45070000
C      -45.61030000     -34.91770000     -71.26980000
H      -43.22500000     -36.36590000     -73.17320000
C      -45.11240000     -35.69200000     -70.25580000
C      -46.66290000     -34.05590000     -70.72950000
C      -46.83940000     -34.17760000     -69.35330000
S      -43.73300000     -36.58220000     -70.81540000
S      -45.82710000     -35.41990000     -68.66270000
H      -47.41030000     -33.52010000     -68.75260000
