40
Properties=species:S:1:pos:R:3 #=T CELL(abcABC):=T 1.889726e+02=T 90.00000=T Traj:=T positionsangstrom=T Step:=T 0=T Bead:=T pbc="F F F"
C      -46.22750000     -34.07060000     -73.53670000
C      -47.37800000     -33.65560000     -72.84860000
C      -47.81880000     -34.54580000     -71.77720000
C      -47.06370000     -35.58450000     -71.21880000
C      -45.86320000     -35.92600000     -71.90240000
C      -45.56720000     -35.20490000     -73.05450000
H      -46.01380000     -33.63800000     -74.53900000
H      -48.81000000     -34.34160000     -71.30960000
H      -45.15670000     -36.69840000     -71.47050000
H      -44.65220000     -35.44600000     -73.69410000
C      -47.72560000     -36.21810000     -70.01500000
H      -47.93610000     -37.28950000     -70.19220000
H      -48.68140000     -35.65430000     -69.85400000
C      -48.20840000     -32.40740000     -73.29670000
H      -48.26480000     -32.22440000     -74.39060000
H      -49.28930000     -32.47520000     -73.00970000
S      -46.70540000     -36.10710000     -68.35820000
S      -47.66490000     -30.79300000     -72.58020000
C      -45.02900000     -35.59860000     -68.63630000
H      -44.39390000     -35.85230000     -67.80710000
H      -44.64710000     -36.34740000     -69.32900000
C      -47.33780000     -31.18240000     -70.82740000
H      -47.78200000     -32.13360000     -70.59860000
H      -47.91520000     -30.43340000     -70.25880000
C      -45.89870000     -31.12700000     -70.37850000
H      -45.71580000     -30.08020000     -70.15370000
H      -45.93970000     -31.62990000     -69.43050000
C      -44.80700000     -34.12240000     -69.03890000
H      -44.55770000     -33.47230000     -68.12220000
H      -45.80020000     -33.83810000     -69.39350000
C      -43.71640000     -33.69100000     -70.01870000
C      -42.60240000     -34.47250000     -70.30290000
C      -43.74060000     -32.53170000     -70.95690000
H      -42.21480000     -35.44460000     -69.88780000
C      -42.66100000     -32.40330000     -71.76580000
C      -44.68960000     -31.48330000     -71.20380000
C      -44.37600000     -30.69150000     -72.33800000
S      -41.58880000     -33.77300000     -71.57510000
S      -42.78930000     -31.15050000     -73.00570000
H      -44.91370000     -29.83230000     -72.80950000
