40
Properties=species:S:1:pos:R:3 #=T CELL(abcABC):=T 1.889726e+02=T 90.00000=T Traj:=T positionsangstrom=T Step:=T 0=T Bead:=T pbc="F F F"
C      -46.09990000     -33.96190000     -73.50690000
C      -47.29710000     -33.56520000     -72.86800000
C      -47.77780000     -34.27020000     -71.76550000
C      -47.10630000     -35.47510000     -71.28540000
C      -45.88020000     -35.76750000     -71.84450000
C      -45.39910000     -35.05140000     -72.93330000
H      -45.54320000     -33.30470000     -74.21560000
H      -48.71440000     -33.97990000     -71.36010000
H      -45.34460000     -36.67980000     -71.58290000
H      -44.45780000     -35.37950000     -73.39720000
C      -47.56890000     -36.27200000     -70.10700000
H      -47.32410000     -37.32730000     -70.36250000
H      -48.63410000     -36.25370000     -69.93920000
C      -48.07730000     -32.40650000     -73.49190000
H      -47.86370000     -32.27940000     -74.54730000
H      -49.16300000     -32.51150000     -73.35430000
S      -46.82650000     -35.94900000     -68.48410000
S      -47.62170000     -30.98160000     -72.54310000
C      -45.03770000     -35.51800000     -68.93510000
H      -44.39820000     -35.96620000     -68.11130000
H      -44.83190000     -35.96740000     -69.89390000
C      -47.25770000     -31.50430000     -70.72450000
H      -47.33110000     -32.56580000     -70.61460000
H      -48.01120000     -31.08160000     -70.04750000
C      -45.86570000     -30.96780000     -70.28130000
H      -45.88870000     -29.86640000     -70.43320000
H      -45.78460000     -31.15240000     -69.18520000
C      -44.87120000     -34.04780000     -69.05050000
H      -44.54190000     -33.71100000     -68.05190000
H      -45.68830000     -33.48730000     -69.35340000
C      -43.79780000     -33.75150000     -70.03940000
C      -42.62140000     -34.45030000     -70.23350000
C      -43.89930000     -32.67600000     -70.95690000
H      -42.31650000     -35.35650000     -69.73780000
C      -42.86450000     -32.68910000     -71.90120000
C      -44.67000000     -31.42060000     -71.04770000
C      -44.12690000     -30.53130000     -72.00320000
S      -41.71790000     -33.89900000     -71.60830000
S      -42.83690000     -31.22590000     -72.92780000
H      -44.61100000     -29.61480000     -72.33860000
