40
Properties=species:S:1:pos:R:3 #=T CELL(abcABC):=T 1.889726e+02=T 90.00000=T Traj:=T positionsangstrom=T Step:=T 0=T Bead:=T pbc="F F F"
C      -47.16090000     -31.37760000     -74.16470000
C      -47.70360000     -32.57160000     -73.61860000
C      -46.99880000     -33.75460000     -73.73150000
C      -45.77310000     -33.80250000     -74.34910000
C      -45.15970000     -32.59810000     -74.70990000
C      -45.85430000     -31.38300000     -74.71600000
H      -47.77150000     -30.50210000     -74.14540000
H      -47.51780000     -34.62600000     -73.42850000
H      -44.13700000     -32.55800000     -74.96550000
H      -45.40280000     -30.50330000     -74.98370000
C      -45.04860000     -35.17360000     -74.61100000
H      -45.02780000     -35.34130000     -75.64880000
H      -45.61770000     -35.94910000     -74.13850000
C      -49.08490000     -32.49290000     -73.02130000
H      -49.46330000     -31.55720000     -72.67570000
H      -49.83500000     -32.91210000     -73.72450000
S      -43.25970000     -35.12680000     -74.18390000
S      -49.21620000     -33.60010000     -71.54500000
C      -43.26390000     -34.87080000     -72.40570000
H      -43.74190000     -35.62010000     -71.76420000
H      -42.19770000     -35.07700000     -72.13760000
C      -47.71960000     -32.93790000     -70.54030000
H      -48.12920000     -32.50870000     -69.61010000
H      -47.31920000     -32.15530000     -71.09340000
C      -46.68280000     -34.05020000     -70.31610000
H      -47.29990000     -34.95690000     -70.10970000
H      -46.21490000     -34.12130000     -71.29620000
C      -43.64930000     -33.42130000     -71.92870000
H      -44.75520000     -33.20770000     -72.10140000
H      -43.09210000     -32.68630000     -72.53040000
C      -43.40960000     -33.08260000     -70.48000000
C      -42.29280000     -32.51830000     -70.02670000
C      -44.31510000     -33.35170000     -69.38420000
H      -41.46060000     -32.20480000     -70.68090000
C      -43.72580000     -33.10570000     -68.12340000
C      -45.71980000     -33.77210000     -69.22820000
C      -46.04110000     -34.02290000     -67.92030000
S      -42.18100000     -32.24590000     -68.36220000
S      -44.72110000     -33.51420000     -66.79760000
H      -46.86710000     -34.60350000     -67.46930000
