40
Properties=species:S:1:pos:R:3 #=T CELL(abcABC):=T 1.889726e+02=T 90.00000=T Traj:=T positionsangstrom=T Step:=T 0=T Bead:=T pbc="F F F"
C      -47.14740000     -31.35670000     -74.09880000
C      -47.67250000     -32.58020000     -73.63530000
C      -46.95280000     -33.73400000     -73.88300000
C      -45.75720000     -33.73020000     -74.62730000
C      -45.28920000     -32.50670000     -75.10130000
C      -45.96530000     -31.30740000     -74.85150000
H      -47.75480000     -30.49530000     -73.79000000
H      -47.45270000     -34.61160000     -73.38900000
H      -44.38940000     -32.50110000     -75.74740000
H      -45.65850000     -30.37270000     -75.16320000
C      -44.98380000     -35.07200000     -74.70410000
H      -44.89160000     -35.64350000     -75.63770000
H      -45.51410000     -35.80110000     -74.00950000
C      -48.95640000     -32.55810000     -72.88380000
H      -49.20270000     -31.50180000     -72.72890000
H      -49.76260000     -32.71050000     -73.65530000
S      -43.12090000     -35.03200000     -74.16870000
S      -49.22380000     -33.59390000     -71.38170000
C      -43.19430000     -34.68010000     -72.31570000
H      -43.90860000     -35.31040000     -71.87900000
H      -42.18470000     -34.89460000     -71.95710000
C      -47.78130000     -33.41640000     -70.33230000
H      -48.12880000     -33.59420000     -69.26490000
H      -47.49600000     -32.31720000     -70.44570000
C      -46.57530000     -34.33380000     -70.43100000
H      -46.78760000     -35.39460000     -70.28870000
H      -46.04420000     -34.25150000     -71.41990000
C      -43.47100000     -33.27140000     -71.94980000
H      -44.44130000     -32.91410000     -72.30750000
H      -42.72380000     -32.67020000     -72.44060000
C      -43.36730000     -33.07170000     -70.47570000
C      -42.23350000     -32.53410000     -69.99520000
C      -44.35480000     -33.34740000     -69.45070000
H      -41.37620000     -32.14220000     -70.62550000
C      -43.81870000     -33.09090000     -68.16530000
C      -45.64340000     -33.92610000     -69.28980000
C      -46.06020000     -34.06450000     -67.99290000
S      -42.25310000     -32.37470000     -68.14230000
S      -44.95830000     -33.35690000     -66.86230000
H      -46.98100000     -34.57760000     -67.55310000
