40
Properties=species:S:1:pos:R:3 #=T CELL(abcABC):=T 1.889726e+02=T 90.00000=T Traj:=T positionsangstrom=T Step:=T 0=T Bead:=T pbc="F F F"
C      -47.10350000     -31.32370000     -74.09260000
C      -47.61980000     -32.49710000     -73.50030000
C      -46.91560000     -33.72850000     -73.68330000
C      -45.73440000     -33.74520000     -74.49410000
C      -45.28240000     -32.54420000     -75.03800000
C      -45.90860000     -31.34580000     -74.83400000
H      -47.72720000     -30.40880000     -74.00300000
H      -47.35080000     -34.64220000     -73.28510000
H      -44.31010000     -32.59020000     -75.59460000
H      -45.53090000     -30.41590000     -75.28160000
C      -44.93320000     -35.03950000     -74.80500000
H      -44.86110000     -35.19630000     -75.88030000
H      -45.38120000     -35.84820000     -74.32520000
C      -48.97220000     -32.56890000     -72.88030000
H      -49.23240000     -31.62930000     -72.39710000
H      -49.67620000     -32.92020000     -73.57810000
S      -43.20770000     -34.85150000     -74.17270000
S      -49.16670000     -33.90130000     -71.60070000
C      -43.35860000     -34.63970000     -72.37230000
H      -44.23000000     -35.31650000     -72.05800000
H      -42.43550000     -35.13130000     -71.91990000
C      -47.83930000     -33.39220000     -70.37530000
H      -48.25330000     -33.41070000     -69.38850000
H      -47.57540000     -32.37080000     -70.49190000
C      -46.55220000     -34.22710000     -70.55000000
H      -46.82990000     -35.26190000     -70.43600000
H      -46.06470000     -34.12360000     -71.50640000
C      -43.51860000     -33.24320000     -71.88270000
H      -44.51510000     -32.93260000     -72.03920000
H      -42.87280000     -32.55670000     -72.50460000
C      -43.24950000     -33.07840000     -70.38320000
C      -42.13200000     -32.53820000     -69.80370000
C      -44.30510000     -33.38940000     -69.36840000
H      -41.16410000     -32.25180000     -70.31230000
C      -43.77620000     -33.10810000     -68.07390000
C      -45.68790000     -33.85790000     -69.33350000
C      -46.10610000     -34.10890000     -68.06870000
S      -42.21550000     -32.35370000     -68.11830000
S      -45.03860000     -33.34160000     -66.89070000
H      -47.11900000     -34.26500000     -67.74430000
