40
Properties=species:S:1:pos:R:3 #=T CELL(abcABC):=T 1.889726e+02=T 90.00000=T Traj:=T positionsangstrom=T Step:=T 0=T Bead:=T pbc="F F F"
C      -47.14080000     -31.34450000     -73.97150000
C      -47.57840000     -32.66630000     -73.80760000
C      -46.60550000     -33.68000000     -73.98000000
C      -45.37820000     -33.38650000     -74.56690000
C      -45.05640000     -32.05540000     -74.94720000
C      -45.91630000     -31.04960000     -74.56080000
H      -47.82020000     -30.48030000     -73.71050000
H      -46.82500000     -34.73480000     -73.77640000
H      -44.10610000     -31.74900000     -75.38250000
H      -45.73600000     -30.04540000     -74.83160000
C      -44.49150000     -34.46110000     -75.03420000
H      -44.09930000     -34.22970000     -76.05250000
H      -45.13540000     -35.28640000     -75.16650000
C      -48.97210000     -32.90060000     -73.29970000
H      -49.52390000     -32.00210000     -72.89920000
H      -49.60010000     -33.33280000     -74.07440000
S      -43.02770000     -34.76880000     -73.94580000
S      -49.00040000     -34.29530000     -71.86620000
C      -43.83040000     -34.66290000     -72.31630000
H      -44.79150000     -35.09060000     -72.43130000
H      -43.29160000     -35.34720000     -71.65650000
C      -47.99030000     -33.37700000     -70.58660000
H      -48.54770000     -33.27680000     -69.68010000
H      -47.87360000     -32.35250000     -70.87470000
C      -46.75030000     -34.15350000     -70.32060000
H      -47.06040000     -35.27820000     -70.22130000
H      -46.09050000     -34.20740000     -71.21860000
C      -43.89390000     -33.15150000     -71.78460000
H      -44.86340000     -32.60470000     -72.05200000
H      -43.13610000     -32.61460000     -72.35280000
C      -43.55660000     -33.08170000     -70.33480000
C      -42.34430000     -32.49380000     -69.86940000
C      -44.46710000     -33.36890000     -69.26050000
H      -41.51060000     -32.20300000     -70.46160000
C      -43.88880000     -33.12710000     -68.04170000
C      -45.83900000     -33.76250000     -69.15190000
C      -46.25700000     -33.94220000     -67.83500000
S      -42.24980000     -32.55670000     -68.15850000
S      -44.92190000     -33.53700000     -66.71100000
H      -47.29340000     -34.24730000     -67.56750000
