40
Properties=species:S:1:pos:R:3 #=T CELL(abcABC):=T 1.889726e+02=T 90.00000=T Traj:=T positionsangstrom=T Step:=T 0=T Bead:=T pbc="F F F"
C      -46.19680000     -33.88100000     -73.87650000
C      -47.23780000     -33.75310000     -72.94510000
C      -47.25900000     -34.58720000     -71.81730000
C      -46.28870000     -35.55660000     -71.67220000
C      -45.34290000     -35.78310000     -72.66240000
C      -45.32360000     -34.89430000     -73.73830000
H      -46.13950000     -33.19990000     -74.68250000
H      -48.07950000     -34.55530000     -71.13800000
H      -44.71040000     -36.59060000     -72.65690000
H      -44.47100000     -34.89790000     -74.39430000
C      -46.27050000     -36.38380000     -70.41930000
H      -45.25520000     -36.61640000     -70.27100000
H      -46.77920000     -37.35610000     -70.54990000
C      -48.20260000     -32.66580000     -73.17970000
H      -48.28190000     -32.39130000     -74.22040000
H      -49.20750000     -32.77660000     -72.79810000
S      -46.94710000     -35.79870000     -68.77840000
S      -47.54310000     -31.01370000     -72.45870000
C      -45.46140000     -34.99260000     -68.00040000
H      -45.56780000     -34.89220000     -66.93130000
H      -44.59580000     -35.74720000     -67.90320000
C      -47.22650000     -31.26230000     -70.67070000
H      -47.36050000     -32.35600000     -70.37490000
H      -48.01810000     -30.74430000     -70.10140000
C      -45.86360000     -30.62330000     -70.19470000
H      -45.98370000     -29.52990000     -70.41500000
H      -45.81430000     -30.69140000     -69.11700000
C      -45.03690000     -33.65050000     -68.61100000
H      -44.40800000     -33.15800000     -67.84720000
H      -45.95690000     -33.02470000     -68.69500000
C      -44.15130000     -33.63440000     -69.85310000
C      -43.44860000     -34.72130000     -70.21380000
C      -43.92220000     -32.43020000     -70.64330000
H      -43.35220000     -35.64930000     -69.62930000
C      -42.90230000     -32.71690000     -71.60450000
C      -44.57100000     -31.16350000     -70.90650000
C      -44.04420000     -30.55080000     -71.99970000
S      -42.41390000     -34.35580000     -71.58730000
S      -42.71140000     -31.37410000     -72.80200000
H      -44.48000000     -29.64030000     -72.40520000
