40
Properties=species:S:1:pos:R:3 #=T CELL(abcABC):=T 1.889726e+02=T 90.00000=T Traj:=T positionsangstrom=T Step:=T 0=T Bead:=T pbc="F F F"
C      -46.91500000     -31.36160000     -74.01440000
C      -47.64810000     -32.52410000     -73.71450000
C      -47.10040000     -33.80830000     -73.96070000
C      -45.88330000     -33.95510000     -74.55410000
C      -45.16070000     -32.79500000     -74.82440000
C      -45.60380000     -31.52190000     -74.53290000
H      -47.24000000     -30.36510000     -73.79910000
H      -47.67550000     -34.69520000     -73.61320000
H      -44.16690000     -32.95160000     -75.25140000
H      -44.93780000     -30.60010000     -74.76390000
C      -45.33310000     -35.35630000     -74.74930000
H      -45.26780000     -35.53080000     -75.83660000
H      -45.97550000     -36.10730000     -74.39050000
C      -48.99960000     -32.40870000     -73.03690000
H      -49.23110000     -31.30510000     -72.82220000
H      -49.87140000     -32.63710000     -73.67640000
S      -43.51490000     -35.37930000     -73.94810000
S      -49.06050000     -33.39560000     -71.47770000
C      -43.61780000     -34.83570000     -72.20470000
H      -44.16030000     -35.49750000     -71.57180000
H      -42.54710000     -34.83710000     -72.01040000
C      -47.38980000     -33.03180000     -70.77470000
H      -47.47040000     -32.26240000     -70.03280000
H      -46.59870000     -32.73680000     -71.51560000
C      -46.71470000     -34.26630000     -70.08320000
H      -47.33780000     -34.97230000     -69.52270000
H      -46.27810000     -34.76010000     -70.97420000
C      -44.03470000     -33.38390000     -71.96170000
H      -45.09650000     -33.17130000     -72.09200000
H      -43.48540000     -32.79550000     -72.76790000
C      -43.59360000     -32.91680000     -70.54650000
C      -42.34880000     -32.43210000     -70.30920000
C      -44.40660000     -33.23050000     -69.39610000
H      -41.59730000     -32.12230000     -71.00670000
C      -43.70780000     -32.90430000     -68.23050000
C      -45.67640000     -33.84360000     -69.11920000
C      -45.93400000     -33.89250000     -67.77230000
S      -42.05740000     -32.35940000     -68.51020000
S      -44.57500000     -33.26550000     -66.74480000
H      -46.78820000     -34.35960000     -67.40250000
