40
Properties=species:S:1:pos:R:3 #=T CELL(abcABC):=T 1.889726e+02=T 90.00000=T Traj:=T positionsangstrom=T Step:=T 0=T Bead:=T pbc="F F F"
C      -45.29400000     -31.42980000     -69.77120000
C      -44.50730000     -31.04830000     -70.87710000
C      -43.27970000     -31.71730000     -71.15510000
C      -42.79830000     -32.67180000     -70.23990000
C      -43.59320000     -32.99980000     -69.08110000
C      -44.84300000     -32.39110000     -68.89510000
H      -46.26420000     -31.04760000     -69.73630000
H      -42.63860000     -31.43400000     -72.00990000
H      -43.21400000     -33.59190000     -68.27440000
H      -45.40790000     -32.66180000     -68.06680000
C      -41.54950000     -33.52180000     -70.53010000
H      -40.93280000     -33.67640000     -69.55530000
H      -40.82150000     -32.86990000     -71.15030000
C      -44.95260000     -29.90470000     -71.70420000
H      -45.00900000     -29.02810000     -71.10620000
H      -44.38560000     -29.63130000     -72.59310000
S      -41.81810000     -35.19290000     -71.20760000
S      -46.78800000     -30.08910000     -72.35000000
C      -42.79720000     -34.77700000     -72.75810000
H      -42.90180000     -33.68970000     -72.61330000
H      -42.13390000     -34.86140000     -73.70410000
C      -46.69530000     -31.16200000     -73.75080000
H      -46.19650000     -30.71430000     -74.62570000
H      -47.69540000     -31.26770000     -74.02910000
C      -46.21400000     -32.66430000     -73.66440000
H      -46.34570000     -33.00810000     -74.73950000
H      -45.09050000     -32.61540000     -73.51850000
C      -44.16900000     -35.49050000     -72.98690000
H      -44.04340000     -36.53410000     -73.07340000
H      -44.54860000     -35.00140000     -73.92430000
C      -45.18000000     -35.43330000     -71.89410000
C      -45.24500000     -36.29130000     -70.84760000
C      -46.35050000     -34.50530000     -71.86370000
H      -44.52340000     -37.11890000     -70.59730000
C      -47.22960000     -34.82290000     -70.80820000
C      -46.87750000     -33.35970000     -72.55970000
C      -48.17440000     -32.97740000     -72.16290000
S      -46.59970000     -36.08930000     -69.78250000
S      -48.64540000     -33.85760000     -70.65660000
H      -48.80120000     -32.07490000     -72.37150000
