40
Properties=species:S:1:pos:R:3 #=T CELL(abcABC):=T 1.889726e+02=T 90.00000=T Traj:=T positionsangstrom=T Step:=T 0=T Bead:=T pbc="F F F"
C      -46.88870000     -31.38780000     -74.25320000
C      -47.56140000     -32.44330000     -73.67020000
C      -47.10180000     -33.79090000     -73.87130000
C      -45.89230000     -33.94390000     -74.63600000
C      -45.26570000     -32.87880000     -75.21760000
C      -45.71980000     -31.60970000     -74.95900000
H      -47.29330000     -30.38680000     -74.03400000
H      -47.62990000     -34.53640000     -73.34240000
H      -44.40780000     -33.08850000     -75.78180000
H      -45.29180000     -30.70680000     -75.40640000
C      -45.32720000     -35.35270000     -74.96900000
H      -44.98240000     -35.50670000     -75.97190000
H      -46.03350000     -36.16460000     -74.76920000
C      -48.79290000     -32.18700000     -72.82260000
H      -48.82260000     -31.06190000     -72.66640000
H      -49.69030000     -32.37450000     -73.45100000
S      -43.76220000     -35.59920000     -73.97130000
S      -49.07690000     -33.31920000     -71.36790000
C      -44.07630000     -35.20120000     -72.22720000
H      -45.01360000     -35.66870000     -71.92580000
H      -43.21630000     -35.66200000     -71.76360000
C      -47.82490000     -33.03820000     -70.07080000
H      -48.38870000     -33.00260000     -69.05610000
H      -47.39570000     -32.00970000     -70.19200000
C      -46.81940000     -34.19260000     -69.80280000
H      -47.28730000     -35.15390000     -69.38120000
H      -46.41210000     -34.56830000     -70.76210000
C      -43.94880000     -33.68260000     -72.02420000
H      -44.85790000     -33.16510000     -72.45880000
H      -43.08570000     -33.37430000     -72.64000000
C      -43.49050000     -33.28600000     -70.58970000
C      -42.25860000     -32.67850000     -70.42070000
C      -44.25360000     -33.43070000     -69.34710000
H      -41.49040000     -32.44020000     -71.22790000
C      -43.49770000     -32.92210000     -68.24480000
C      -45.61950000     -33.76140000     -68.95720000
C      -45.81740000     -33.47790000     -67.62850000
S      -41.92490000     -32.29260000     -68.68570000
S      -44.33620000     -32.87410000     -66.71790000
H      -46.79720000     -33.35250000     -67.12130000
