40
Properties=species:S:1:pos:R:3 #=T CELL(abcABC):=T 1.889726e+02=T 90.00000=T Traj:=T positionsangstrom=T Step:=T 0=T Bead:=T pbc="F F F"
C      -45.25520000     -31.40260000     -69.86000000
C      -44.46940000     -31.05790000     -70.97600000
C      -43.27350000     -31.67650000     -71.23150000
C      -42.70870000     -32.65880000     -70.34460000
C      -43.42290000     -32.87330000     -69.16720000
C      -44.72000000     -32.29460000     -68.95360000
H      -46.33390000     -31.07990000     -69.71980000
H      -42.55320000     -31.38580000     -71.93570000
H      -43.10660000     -33.51450000     -68.34640000
H      -45.30420000     -32.59460000     -68.07540000
C      -41.55700000     -33.43460000     -70.76100000
H      -41.01820000     -33.84050000     -69.96240000
H      -40.75350000     -32.81550000     -71.16410000
C      -44.97830000     -29.91020000     -71.82240000
H      -44.94740000     -28.92530000     -71.31730000
H      -44.48750000     -29.80320000     -72.73520000
S      -42.02540000     -34.95050000     -71.70250000
S      -46.82700000     -30.06950000     -72.21960000
C      -43.18210000     -34.28220000     -72.98970000
H      -43.51850000     -33.29810000     -72.56870000
H      -42.67200000     -34.15830000     -73.92190000
C      -46.96700000     -31.33010000     -73.67220000
H      -46.45200000     -30.88980000     -74.48250000
H      -48.01610000     -31.33220000     -73.89740000
C      -46.34300000     -32.65290000     -73.40910000
H      -46.60270000     -33.25770000     -74.32610000
H      -45.31400000     -32.39330000     -73.31480000
C      -44.32600000     -35.20940000     -73.14320000
H      -44.04760000     -36.25050000     -73.40100000
H      -44.95420000     -34.85680000     -73.98930000
C      -45.21770000     -35.35350000     -71.94680000
C      -45.03610000     -36.35350000     -71.04250000
C      -46.38530000     -34.57220000     -71.65800000
H      -44.36010000     -37.16520000     -70.94280000
C      -47.17980000     -35.11540000     -70.62890000
C      -46.94590000     -33.36750000     -72.24000000
C      -48.15410000     -33.07470000     -71.64510000
S      -46.31800000     -36.41310000     -69.82020000
S      -48.47060000     -34.03360000     -70.26390000
H      -48.76600000     -32.23160000     -71.97900000
