40
Properties=species:S:1:pos:R:3 #=T CELL(abcABC):=T 1.889726e+02=T 90.00000=T Traj:=T positionsangstrom=T Step:=T 0=T Bead:=T pbc="F F F"
C      -47.09280000     -31.33360000     -73.97510000
C      -47.76450000     -32.54650000     -73.76590000
C      -47.15380000     -33.78620000     -74.09930000
C      -45.84590000     -33.90540000     -74.46540000
C      -45.19580000     -32.71250000     -74.67120000
C      -45.79610000     -31.45820000     -74.53890000
H      -47.52260000     -30.37000000     -73.79350000
H      -47.68850000     -34.67640000     -73.96300000
H      -44.22760000     -32.67800000     -75.09740000
H      -45.21620000     -30.56060000     -74.80310000
C      -45.15430000     -35.26480000     -74.45500000
H      -45.27040000     -35.67040000     -75.53730000
H      -45.57320000     -35.97720000     -73.73530000
C      -49.15280000     -32.52680000     -73.14950000
H      -49.62120000     -31.50390000     -73.07960000
H      -49.76450000     -33.13540000     -73.74590000
S      -43.33130000     -35.30060000     -74.08130000
S      -49.13150000     -33.45930000     -71.50000000
C      -43.39330000     -34.82220000     -72.25830000
H      -44.12800000     -35.54030000     -71.78180000
H      -42.42120000     -35.08470000     -71.87890000
C      -47.55750000     -32.91110000     -70.58130000
H      -48.00620000     -32.46120000     -69.64110000
H      -46.94000000     -32.11830000     -71.09080000
C      -46.73560000     -34.18050000     -70.21750000
H      -47.41720000     -34.94260000     -69.79820000
H      -46.33070000     -34.70590000     -71.05730000
C      -43.79090000     -33.35510000     -72.00270000
H      -44.87080000     -33.37830000     -72.13580000
H      -43.36790000     -32.66180000     -72.64540000
C      -43.48030000     -33.05220000     -70.53560000
C      -42.36620000     -32.39460000     -70.23270000
C      -44.32750000     -33.29740000     -69.39170000
H      -41.52010000     -32.26440000     -70.88800000
C      -43.67160000     -33.04560000     -68.20350000
C      -45.65720000     -33.90430000     -69.13580000
C      -45.92550000     -33.92820000     -67.77850000
S      -42.14150000     -32.24230000     -68.45140000
S      -44.57460000     -33.41070000     -66.80540000
H      -46.83890000     -34.07760000     -67.27790000
