40
Properties=species:S:1:pos:R:3 #=T CELL(abcABC):=T 1.889726e+02=T 90.00000=T Traj:=T positionsangstrom=T Step:=T 0=T Bead:=T pbc="F F F"
C      -45.52930000     -31.19200000     -69.80850000
C      -44.50480000     -30.94350000     -70.78560000
C      -43.34900000     -31.68600000     -70.75840000
C      -43.20160000     -32.75280000     -69.85250000
C      -44.19050000     -32.96860000     -68.84940000
C      -45.37730000     -32.22550000     -68.84770000
H      -46.43150000     -30.57820000     -69.82220000
H      -42.60340000     -31.50190000     -71.48650000
H      -44.05390000     -33.78980000     -68.20230000
H      -46.16540000     -32.41110000     -68.14710000
C      -42.00240000     -33.67180000     -69.82690000
H      -41.78580000     -33.85390000     -68.77320000
H      -41.19890000     -33.26760000     -70.30050000
C      -44.67990000     -29.73210000     -71.66900000
H      -44.92580000     -28.82180000     -71.15210000
H      -43.75160000     -29.41810000     -72.13330000
S      -42.33580000     -35.38800000     -70.52120000
S      -46.03900000     -29.78160000     -72.88950000
C      -42.96810000     -34.93450000     -72.21300000
H      -43.32320000     -33.94970000     -72.05060000
H      -42.13630000     -34.94860000     -72.88910000
C      -45.79210000     -31.23740000     -74.15060000
H      -45.08000000     -30.86810000     -74.90460000
H      -46.80700000     -31.12120000     -74.56520000
C      -45.44560000     -32.64730000     -73.67650000
H      -45.37800000     -33.40790000     -74.39900000
H      -44.52360000     -32.58150000     -73.14640000
C      -44.06660000     -35.80130000     -72.79690000
H      -43.89380000     -36.92300000     -72.77110000
H      -44.21500000     -35.39290000     -73.76650000
C      -45.28660000     -35.65820000     -71.95810000
C      -45.50620000     -36.60300000     -70.98590000
C      -46.29960000     -34.61360000     -72.02130000
H      -44.75800000     -37.35570000     -70.68480000
C      -47.34490000     -34.87940000     -71.11910000
C      -46.48350000     -33.31730000     -72.70740000
C      -47.63800000     -32.70710000     -72.31320000
S      -47.07300000     -36.30280000     -70.14620000
S      -48.49890000     -33.57440000     -71.01750000
H      -47.89000000     -31.62460000     -72.53960000
