40
Properties=species:S:1:pos:R:3 #=T CELL(abcABC):=T 1.889726e+02=T 90.00000=T Traj:=T positionsangstrom=T Step:=T 0=T Bead:=T pbc="F F F"
C      -45.46920000     -30.67420000     -70.17670000
C      -44.27650000     -30.72400000     -70.91630000
C      -43.32110000     -31.70070000     -70.61590000
C      -43.46100000     -32.65410000     -69.60460000
C      -44.59970000     -32.53430000     -68.85490000
C      -45.60110000     -31.56900000     -69.14240000
H      -46.01910000     -29.77330000     -70.32300000
H      -42.30710000     -31.66610000     -71.16910000
H      -44.86920000     -33.29040000     -68.10830000
H      -46.41890000     -31.39510000     -68.44720000
C      -42.38290000     -33.60720000     -69.25250000
H      -42.30540000     -33.78350000     -68.17120000
H      -41.40710000     -33.23600000     -69.54160000
C      -44.03620000     -29.87500000     -72.16560000
H      -43.69200000     -28.91150000     -71.97320000
H      -43.19470000     -30.22640000     -72.74540000
S      -42.67590000     -35.31940000     -69.92120000
S      -45.61900000     -29.84510000     -73.18410000
C      -42.87700000     -34.94040000     -71.77710000
H      -43.34810000     -33.97800000     -71.82070000
H      -41.93650000     -35.00670000     -72.35090000
C      -45.49250000     -31.46020000     -74.21840000
H      -44.71810000     -31.34170000     -74.93170000
H      -46.50860000     -31.44710000     -74.76130000
C      -45.33180000     -32.86510000     -73.59370000
H      -45.23280000     -33.57060000     -74.41380000
H      -44.39490000     -32.66310000     -72.98760000
C      -43.87820000     -35.88940000     -72.46860000
H      -43.54590000     -36.93520000     -72.31910000
H      -43.92310000     -35.62920000     -73.51710000
C      -45.30970000     -35.80660000     -71.99190000
C      -45.85020000     -36.80650000     -71.27510000
C      -46.24660000     -34.70180000     -71.97660000
H      -45.34690000     -37.72030000     -70.98750000
C      -47.33940000     -34.92400000     -71.18170000
C      -46.35350000     -33.42370000     -72.67190000
C      -47.45220000     -32.75030000     -72.25800000
S      -47.41810000     -36.53150000     -70.50250000
S      -48.44070000     -33.58310000     -71.06220000
H      -47.78170000     -31.77860000     -72.48050000
