40
Properties=species:S:1:pos:R:3 #=T CELL(abcABC):=T 1.889726e+02=T 90.00000=T Traj:=T positionsangstrom=T Step:=T 0=T Bead:=T pbc="F F F"
C      -45.44930000     -31.45430000     -69.81700000
C      -44.47850000     -31.14650000     -70.79340000
C      -43.28720000     -31.90190000     -70.84950000
C      -43.11520000     -32.95590000     -69.91810000
C      -44.16160000     -33.35810000     -69.07940000
C      -45.36990000     -32.65760000     -69.08210000
H      -46.41200000     -30.93290000     -69.85620000
H      -42.47650000     -31.52480000     -71.47460000
H      -43.95850000     -34.18230000     -68.36220000
H      -46.28310000     -33.04620000     -68.56590000
C      -41.76680000     -33.66120000     -69.99850000
H      -41.57680000     -34.00220000     -69.02190000
H      -40.98660000     -32.90620000     -70.17870000
C      -44.64310000     -30.01200000     -71.70460000
H      -44.48080000     -28.96800000     -71.25530000
H      -43.89530000     -30.04670000     -72.54890000
S      -41.78270000     -35.10020000     -71.21030000
S      -46.29270000     -29.88010000     -72.57160000
C      -42.90980000     -34.63180000     -72.60150000
H      -43.24410000     -33.62570000     -72.56990000
H      -42.32810000     -34.71340000     -73.46970000
C      -46.24790000     -31.14650000     -73.92610000
H      -45.49550000     -30.80400000     -74.67540000
H      -47.22800000     -31.07380000     -74.43260000
C      -45.85570000     -32.54450000     -73.62530000
H      -45.83500000     -32.96710000     -74.62340000
H      -44.86110000     -32.50070000     -73.22320000
C      -44.11680000     -35.56050000     -72.79960000
H      -43.64490000     -36.57100000     -72.75890000
H      -44.43650000     -35.30090000     -73.80510000
C      -45.31280000     -35.47380000     -71.83440000
C      -45.27530000     -36.17630000     -70.67230000
C      -46.42320000     -34.50050000     -71.85770000
H      -44.50430000     -36.89590000     -70.43260000
C      -47.33520000     -34.85030000     -70.88120000
C      -46.77080000     -33.33070000     -72.69230000
C      -47.93960000     -32.79970000     -72.18720000
S      -46.82220000     -36.08750000     -69.76950000
S      -48.71850000     -33.75250000     -70.96550000
H      -48.34530000     -31.91980000     -72.54310000
