40
Properties=species:S:1:pos:R:3 #=T CELL(abcABC):=T 1.889726e+02=T 90.00000=T Traj:=T positionsangstrom=T Step:=T 0=T Bead:=T pbc="F F F"
C      -45.43680000     -30.81310000     -70.46820000
C      -44.13170000     -30.96150000     -70.88440000
C      -43.30470000     -31.97000000     -70.33370000
C      -43.73040000     -32.89360000     -69.36890000
C      -45.05660000     -32.72670000     -68.97540000
C      -45.86770000     -31.71770000     -69.51020000
H      -46.10090000     -30.21240000     -71.06190000
H      -42.29860000     -32.04650000     -70.72790000
H      -45.42660000     -33.33250000     -68.23970000
H      -46.86320000     -31.58260000     -69.08950000
C      -42.73910000     -33.97750000     -68.84560000
H      -42.86330000     -34.07470000     -67.73660000
H      -41.79760000     -33.66820000     -69.12620000
C      -43.71860000     -30.13200000     -72.10640000
H      -43.40870000     -29.09290000     -71.80440000
H      -42.85400000     -30.46880000     -72.59990000
S      -43.21610000     -35.67090000     -69.40770000
S      -45.06990000     -30.08530000     -73.42300000
C      -43.01550000     -35.53080000     -71.27340000
H      -43.06300000     -34.52020000     -71.50180000
H      -42.05960000     -36.07960000     -71.63850000
C      -44.58390000     -31.67780000     -74.27840000
H      -43.61610000     -31.59320000     -74.81830000
H      -45.36920000     -31.56920000     -75.01150000
C      -44.61870000     -32.97650000     -73.50520000
H      -44.31590000     -33.77980000     -74.28420000
H      -43.86610000     -33.00980000     -72.77480000
C      -44.12900000     -36.20480000     -71.99190000
H      -44.08710000     -37.28680000     -71.82270000
H      -43.91180000     -36.32300000     -73.06580000
C      -45.44610000     -35.70420000     -71.57920000
C      -46.22240000     -36.43950000     -70.64160000
C      -46.16530000     -34.51070000     -71.99910000
H      -45.83580000     -37.23710000     -69.96540000
C      -47.44310000     -34.43800000     -71.49110000
C      -45.95140000     -33.38770000     -72.85940000
C      -47.03990000     -32.62790000     -72.99820000
S      -47.81620000     -35.61310000     -70.31180000
S      -48.37250000     -33.07820000     -71.98710000
H      -47.07270000     -31.67690000     -73.45010000
