40
Properties=species:S:1:pos:R:3 #=T CELL(abcABC):=T 1.889726e+02=T 90.00000=T Traj:=T positionsangstrom=T Step:=T 0=T Bead:=T pbc="F F F"
C      -47.44620000     -33.36030000     -74.10890000
C      -48.03460000     -34.03390000     -73.04360000
C      -47.56770000     -35.24330000     -72.57800000
C      -46.56950000     -35.89430000     -73.26050000
C      -45.97970000     -35.25340000     -74.34590000
C      -46.35190000     -33.96600000     -74.73100000
H      -47.79960000     -32.40310000     -74.56100000
H      -48.16300000     -35.77170000     -71.81290000
H      -45.14390000     -35.68580000     -74.84380000
H      -45.82130000     -33.49740000     -75.58860000
C      -45.88300000     -37.10150000     -72.74340000
H      -45.85290000     -37.87520000     -73.50060000
H      -46.35220000     -37.48630000     -71.87100000
C      -49.26170000     -33.46020000     -72.26240000
H      -49.55060000     -32.47430000     -72.47780000
H      -50.05780000     -34.20260000     -72.66350000
S      -44.06000000     -36.88260000     -72.33970000
S      -49.13420000     -33.69080000     -70.44700000
C      -43.93650000     -35.36850000     -71.35190000
H      -44.80480000     -35.21690000     -70.66010000
H      -43.02760000     -35.38800000     -70.57810000
C      -47.82590000     -32.39560000     -70.24570000
H      -47.95670000     -31.96890000     -69.22590000
H      -48.02920000     -31.67180000     -71.02560000
C      -46.40980000     -32.90640000     -70.25210000
H      -46.47870000     -33.83360000     -69.57810000
H      -46.10550000     -33.34240000     -71.20050000
C      -43.68630000     -34.06400000     -72.04710000
H      -44.58470000     -33.60280000     -72.53190000
H      -43.09490000     -34.22800000     -72.89100000
C      -43.17200000     -32.91470000     -71.20910000
C      -41.90830000     -32.45190000     -71.39870000
C      -43.91220000     -32.04590000     -70.26740000
H      -41.26130000     -32.97200000     -72.04300000
C      -43.01620000     -31.19290000     -69.59900000
C      -45.28790000     -31.97690000     -69.75190000
C      -45.35940000     -30.94280000     -68.78930000
S      -41.45360000     -31.02700000     -70.37810000
S      -43.83820000     -30.18660000     -68.43170000
H      -46.24720000     -30.47450000     -68.30200000
