40
Properties=species:S:1:pos:R:3 #=T CELL(abcABC):=T 1.889726e+02=T 90.00000=T Traj:=T positionsangstrom=T Step:=T 0=T Bead:=T pbc="F F F"
C      -47.85870000     -31.71480000     -68.38060000
C      -46.48670000     -31.97570000     -68.43680000
C      -45.67190000     -31.29230000     -69.41430000
C      -46.24120000     -30.27130000     -70.22150000
C      -47.56270000     -29.90240000     -70.02720000
C      -48.38800000     -30.61990000     -69.11450000
H      -48.48710000     -32.32730000     -67.75480000
H      -44.60290000     -31.52910000     -69.52240000
H      -47.99670000     -29.06860000     -70.54190000
H      -49.41470000     -30.32100000     -69.06540000
C      -45.35840000     -29.58940000     -71.19780000
H      -44.35170000     -29.97430000     -71.14110000
H      -45.36660000     -28.49640000     -70.97590000
C      -45.97590000     -32.95320000     -67.35090000
H      -44.90470000     -32.77040000     -67.17550000
H      -46.35900000     -32.69640000     -66.39720000
S      -45.81800000     -29.80870000     -73.00870000
S      -46.24480000     -34.70430000     -67.62590000
C      -45.66990000     -31.65330000     -73.13160000
H      -46.41170000     -32.15990000     -72.53080000
H      -45.73270000     -32.01600000     -74.10190000
C      -45.15790000     -35.06240000     -69.15090000
H      -44.90360000     -36.11540000     -69.04750000
H      -44.17710000     -34.55750000     -68.95020000
C      -45.80490000     -34.61310000     -70.44130000
H      -46.86950000     -34.83200000     -70.40850000
H      -45.82530000     -33.48530000     -70.61590000
C      -44.26600000     -32.18430000     -72.59530000
H      -44.31600000     -32.15950000     -71.48380000
H      -43.45370000     -31.46360000     -72.85090000
C      -43.92640000     -33.55450000     -73.16980000
C      -42.95170000     -33.69430000     -74.21180000
C      -44.47190000     -34.86040000     -72.73910000
H      -42.35730000     -32.92710000     -74.66050000
C      -43.93840000     -35.91010000     -73.51000000
C      -45.25710000     -35.37250000     -71.62280000
C      -45.41690000     -36.74460000     -71.73710000
S      -42.80310000     -35.38330000     -74.71790000
S      -44.34610000     -37.48730000     -72.91070000
H      -46.05610000     -37.33710000     -71.13350000
