40
Properties=species:S:1:pos:R:3 #=T CELL(abcABC):=T 1.889726e+02=T 90.00000=T Traj:=T positionsangstrom=T Step:=T 0=T Bead:=T pbc="F F F"
C      -42.46090000     -35.98730000     -70.35800000
C      -43.76100000     -36.10010000     -69.84940000
C      -44.87270000     -36.50090000     -70.64650000
C      -44.62320000     -36.55270000     -72.06540000
C      -43.32220000     -36.30240000     -72.53360000
C      -42.27790000     -36.10230000     -71.71470000
H      -41.65910000     -35.60560000     -69.72430000
H      -45.89590000     -36.70190000     -70.17490000
H      -43.19330000     -36.40170000     -73.64940000
H      -41.35430000     -35.96340000     -72.15230000
C      -45.78830000     -36.87350000     -72.91030000
H      -46.66630000     -37.23660000     -72.33490000
H      -45.50790000     -37.59800000     -73.68420000
C      -43.94950000     -35.72800000     -68.38560000
H      -44.09670000     -36.61330000     -67.74900000
H      -43.04720000     -35.17520000     -68.15290000
S      -46.38780000     -35.34620000     -73.84750000
S      -45.44430000     -34.66570000     -68.04400000
C      -47.66400000     -34.69010000     -72.69510000
H      -48.34200000     -34.24070000     -73.42390000
H      -48.20290000     -35.51100000     -72.16810000
C      -44.75310000     -33.22660000     -68.87730000
H      -44.64130000     -33.58050000     -69.94640000
H      -43.73820000     -32.94180000     -68.52790000
C      -45.73710000     -31.99790000     -68.87490000
H      -46.77740000     -32.32090000     -68.86470000
H      -45.61540000     -31.44450000     -67.92180000
C      -47.13370000     -33.64250000     -71.63950000
H      -46.34790000     -34.10150000     -71.14140000
H      -47.90610000     -33.59030000     -70.93810000
C      -46.66290000     -32.31170000     -72.16420000
C      -46.83700000     -31.87080000     -73.43850000
C      -45.93780000     -31.29470000     -71.38830000
H      -47.51110000     -32.30090000     -74.26010000
C      -45.44990000     -30.22650000     -72.16780000
C      -45.53030000     -31.10130000     -70.04130000
C      -45.07280000     -29.84630000     -69.74290000
S      -46.02490000     -30.35300000     -73.77200000
S      -44.77530000     -28.97550000     -71.29240000
H      -44.39350000     -29.68960000     -68.90350000
