40
Properties=species:S:1:pos:R:3 #=T CELL(abcABC):=T 1.889726e+02=T 90.00000=T Traj:=T positionsangstrom=T Step:=T 0=T Bead:=T pbc="F F F"
C      -44.77800000     -30.42910000     -70.09430000
C      -43.56610000     -31.18810000     -70.28100000
C      -43.38690000     -32.36590000     -69.54320000
C      -44.34920000     -32.86850000     -68.60860000
C      -45.49470000     -32.09250000     -68.40430000
C      -45.68030000     -30.90080000     -69.14750000
H      -44.90610000     -29.53300000     -70.65590000
H      -42.52330000     -32.92290000     -69.79410000
H      -46.24030000     -32.34510000     -67.64470000
H      -46.68810000     -30.37980000     -68.98800000
C      -44.26470000     -34.29070000     -67.94620000
H      -44.78630000     -34.22960000     -66.94200000
H      -43.19350000     -34.59820000     -67.81320000
C      -42.60300000     -30.80100000     -71.35880000
H      -42.04920000     -29.88550000     -71.09690000
H      -41.89970000     -31.57390000     -71.52610000
S      -45.08270000     -35.67430000     -68.91100000
S      -43.34040000     -30.54860000     -73.01200000
C      -43.93280000     -35.60630000     -70.47050000
H      -43.89360000     -34.52170000     -70.55890000
H      -42.91040000     -35.82270000     -70.18840000
C      -43.14220000     -32.17750000     -73.73310000
H      -42.08840000     -32.44300000     -73.94100000
H      -43.61160000     -32.19160000     -74.72340000
C      -43.90500000     -33.36640000     -73.07460000
H      -43.67730000     -34.20760000     -73.75830000
H      -43.42690000     -33.63950000     -72.14280000
C      -44.49910000     -36.32030000     -71.67030000
H      -44.58340000     -37.38090000     -71.53460000
H      -43.87250000     -36.07950000     -72.48710000
C      -45.84580000     -35.80790000     -72.05810000
C      -47.00280000     -36.50790000     -71.74500000
C      -46.19100000     -34.46740000     -72.44050000
H      -47.15090000     -37.48610000     -71.27010000
C      -47.55010000     -34.12760000     -72.34420000
C      -45.41920000     -33.30990000     -72.98400000
C      -46.19830000     -32.27820000     -73.31250000
S      -48.49690000     -35.55360000     -72.00330000
S      -47.89640000     -32.49470000     -72.97080000
H      -45.87610000     -31.34690000     -73.82570000
