40
Properties=species:S:1:pos:R:3 #=T CELL(abcABC):=T 1.889726e+02=T 90.00000=T Traj:=T positionsangstrom=T Step:=T 0=T Bead:=T pbc="F F F"
C      -48.10570000     -34.06980000     -74.22850000
C      -48.20220000     -34.27440000     -72.86150000
C      -47.34260000     -35.16900000     -72.19760000
C      -46.50170000     -35.91960000     -72.91590000
C      -46.30620000     -35.70550000     -74.29040000
C      -47.09210000     -34.75610000     -74.90420000
H      -48.76470000     -33.41430000     -74.81390000
H      -47.47370000     -35.35500000     -71.16250000
H      -45.58120000     -36.28700000     -74.86970000
H      -47.03410000     -34.64770000     -75.96890000
C      -45.67990000     -37.00740000     -72.28200000
H      -45.80060000     -37.97850000     -72.80270000
H      -45.97360000     -37.14530000     -71.23680000
C      -49.30170000     -33.41420000     -72.09150000
H      -49.50440000     -32.37060000     -72.44330000
H      -50.17740000     -34.01270000     -72.09800000
S      -43.80940000     -36.74340000     -72.32700000
S      -49.07080000     -33.29680000     -70.21590000
C      -43.57220000     -35.21030000     -71.37770000
H      -44.15840000     -35.13340000     -70.43800000
H      -42.51400000     -35.21040000     -71.11970000
C      -47.58230000     -32.14140000     -69.97840000
H      -47.66280000     -31.63030000     -69.04150000
H      -47.54430000     -31.39050000     -70.77570000
C      -46.32560000     -33.04520000     -70.01270000
H      -46.42480000     -33.93500000     -69.44050000
H      -46.25920000     -33.40460000     -71.05990000
C      -43.83850000     -33.92340000     -72.30190000
H      -44.85280000     -33.89850000     -72.58940000
H      -43.29370000     -34.19070000     -73.24020000
C      -43.34730000     -32.67220000     -71.60410000
C      -42.15240000     -32.04700000     -71.92910000
C      -43.88700000     -32.07090000     -70.43550000
H      -41.48760000     -32.33300000     -72.69560000
C      -43.04060000     -31.09990000     -69.83540000
C      -45.06660000     -32.21310000     -69.63880000
C      -45.14400000     -31.29940000     -68.60980000
S      -41.55850000     -30.93390000     -70.73940000
S      -43.71570000     -30.21560000     -68.55150000
H      -45.88770000     -31.28970000     -67.86370000
