40
Properties=species:S:1:pos:R:3 #=T CELL(abcABC):=T 1.889726e+02=T 90.00000=T Traj:=T positionsangstrom=T Step:=T 0=T Bead:=T pbc="F F F"
C      -44.99040000     -30.93340000     -70.56660000
C      -43.61100000     -31.30200000     -70.53860000
C      -43.22930000     -32.40000000     -69.67490000
C      -44.19970000     -33.05560000     -68.91120000
C      -45.58290000     -32.64920000     -68.88670000
C      -45.90790000     -31.55360000     -69.67210000
H      -45.35090000     -30.15970000     -71.20270000
H      -42.18540000     -32.76300000     -69.62070000
H      -46.37940000     -33.24290000     -68.38560000
H      -46.99630000     -31.38510000     -69.89190000
C      -43.81950000     -34.37060000     -68.18680000
H      -44.15130000     -34.39930000     -67.20240000
H      -42.73140000     -34.46390000     -68.20450000
C      -42.70190000     -30.48030000     -71.37910000
H      -42.52850000     -29.48180000     -71.03710000
H      -41.73860000     -30.88820000     -71.39970000
S      -44.66790000     -35.80700000     -68.99920000
S      -43.55000000     -30.30540000     -73.04910000
C      -43.73800000     -35.93370000     -70.63360000
H      -43.48640000     -34.93360000     -70.73840000
H      -42.84510000     -36.52930000     -70.52770000
C      -43.25470000     -31.98650000     -73.72480000
H      -42.20840000     -32.14790000     -73.72780000
H      -43.61030000     -31.87050000     -74.75920000
C      -43.90830000     -33.24200000     -72.98350000
H      -43.71820000     -34.10920000     -73.67010000
H      -43.31060000     -33.45350000     -72.13740000
C      -44.69120000     -36.34200000     -71.80820000
H      -44.90380000     -37.39630000     -71.85680000
H      -44.02230000     -36.12160000     -72.61610000
C      -45.99900000     -35.68620000     -71.78680000
C      -47.12060000     -36.34150000     -71.38390000
C      -46.22280000     -34.29240000     -72.16560000
H      -47.28450000     -37.35400000     -71.20560000
C      -47.57430000     -33.98410000     -72.12530000
C      -45.42540000     -33.29080000     -72.77940000
C      -46.18110000     -32.23880000     -73.21760000
S      -48.52030000     -35.22180000     -71.41530000
S      -47.94970000     -32.44890000     -72.88370000
H      -45.85720000     -31.39310000     -73.79720000
