40
Properties=species:S:1:pos:R:3 #=T CELL(abcABC):=T 1.889726e+02=T 90.00000=T Traj:=T positionsangstrom=T Step:=T 0=T Bead:=T pbc="F F F"
C      -45.47390000     -31.10970000     -70.89810000
C      -44.35240000     -31.61810000     -70.09670000
C      -44.64830000     -32.38440000     -68.94530000
C      -45.95420000     -32.85390000     -68.67320000
C      -46.99110000     -32.35440000     -69.49010000
C      -46.73270000     -31.49870000     -70.59310000
H      -45.46780000     -30.36620000     -71.71070000
H      -43.93630000     -32.67610000     -68.26160000
H      -47.95420000     -32.60090000     -69.13670000
H      -47.51680000     -31.13890000     -71.25760000
C      -46.23580000     -33.99040000     -67.69950000
H      -47.18790000     -33.86420000     -67.12990000
H      -45.39290000     -34.07380000     -67.03860000
C      -42.94630000     -31.21990000     -70.28090000
H      -42.52080000     -30.50330000     -69.58610000
H      -42.37450000     -32.16440000     -70.10390000
S      -46.27190000     -35.71250000     -68.60810000
S      -42.37030000     -30.90470000     -72.06210000
C      -44.64620000     -35.77250000     -69.51720000
H      -44.32910000     -34.74600000     -69.47590000
H      -43.87040000     -36.37160000     -69.00200000
C      -41.89820000     -32.61440000     -72.57350000
H      -41.05110000     -32.78410000     -71.95950000
H      -41.44030000     -32.56800000     -73.65340000
C      -42.98260000     -33.68710000     -72.33890000
H      -42.59120000     -34.60180000     -72.73540000
H      -43.11910000     -33.82200000     -71.26300000
C      -44.88130000     -36.32320000     -70.97020000
H      -45.22370000     -37.31650000     -70.93460000
H      -43.90500000     -36.36420000     -71.44780000
C      -45.86340000     -35.45800000     -71.78960000
C      -47.17200000     -35.79760000     -71.93390000
C      -45.52640000     -34.26870000     -72.55900000
H      -47.65910000     -36.59670000     -71.50010000
C      -46.64520000     -33.72550000     -73.11570000
C      -44.34730000     -33.41170000     -72.90490000
C      -44.63450000     -32.40630000     -73.76600000
S      -48.07860000     -34.65670000     -72.83380000
S      -46.35810000     -32.28910000     -74.06200000
H      -43.98650000     -31.63080000     -74.17440000
