40
Properties=species:S:1:pos:R:3 #=T CELL(abcABC):=T 1.889726e+02=T 90.00000=T Traj:=T positionsangstrom=T Step:=T 0=T Bead:=T pbc="F F F"
C      -48.10080000     -33.87520000     -73.63040000
C      -48.35950000     -34.36510000     -72.37180000
C      -47.54010000     -35.43730000     -71.94420000
C      -46.75760000     -36.05000000     -72.85270000
C      -46.43020000     -35.48300000     -74.12710000
C      -47.19840000     -34.42840000     -74.58790000
H      -48.67560000     -33.05570000     -73.95550000
H      -47.51580000     -35.79110000     -70.88090000
H      -45.81290000     -35.97420000     -74.90630000
H      -47.14720000     -33.89760000     -75.53530000
C      -46.03380000     -37.25640000     -72.31950000
H      -46.11970000     -38.13130000     -73.02400000
H      -46.56050000     -37.66480000     -71.34960000
C      -49.51370000     -33.75040000     -71.60600000
H      -49.89300000     -32.99390000     -72.26490000
H      -50.31720000     -34.49200000     -71.56950000
S      -44.22170000     -37.07180000     -72.02770000
S      -49.03280000     -33.09610000     -69.92530000
C      -43.81860000     -35.49810000     -71.09400000
H      -44.66570000     -35.21370000     -70.43670000
H      -42.88590000     -35.65310000     -70.59650000
C      -47.60330000     -31.99850000     -70.28210000
H      -47.74590000     -31.22080000     -69.55040000
H      -47.61980000     -31.47990000     -71.31050000
C      -46.21400000     -32.71620000     -70.10630000
H      -46.12070000     -33.29420000     -69.22290000
H      -46.09730000     -33.45020000     -70.92410000
C      -43.70050000     -34.27620000     -72.03500000
H      -44.74640000     -34.03430000     -72.40310000
H      -43.15240000     -34.41250000     -73.02640000
C      -43.05200000     -33.09740000     -71.29120000
C      -41.80250000     -32.77650000     -71.65650000
C      -43.69500000     -32.02320000     -70.52570000
H      -41.19770000     -33.43970000     -72.19000000
C      -42.81010000     -30.98770000     -70.27770000
C      -45.02090000     -31.76360000     -70.00440000
C      -45.05460000     -30.59030000     -69.30630000
S      -41.23350000     -31.21150000     -71.08050000
S      -43.52960000     -29.66500000     -69.40410000
H      -45.88700000     -30.06110000     -68.89040000
