40
Properties=species:S:1:pos:R:3 #=T CELL(abcABC):=T 1.889726e+02=T 90.00000=T Traj:=T positionsangstrom=T Step:=T 0=T Bead:=T pbc="F F F"
C      -48.15530000     -33.65770000     -73.72500000
C      -48.41170000     -34.13020000     -72.42830000
C      -47.63110000     -35.21060000     -71.93990000
C      -46.65150000     -35.87850000     -72.72920000
C      -46.42590000     -35.30910000     -73.96580000
C      -47.02910000     -34.13800000     -74.41180000
H      -48.73400000     -32.83780000     -74.11730000
H      -47.92600000     -35.59060000     -70.97670000
H      -45.67960000     -35.75300000     -74.64940000
H      -46.95390000     -33.96180000     -75.41260000
C      -45.98150000     -37.17750000     -72.31550000
H      -46.23160000     -38.11940000     -72.96970000
H      -46.48710000     -37.51530000     -71.33210000
C      -49.54690000     -33.63340000     -71.59160000
H      -50.10920000     -32.94920000     -72.22250000
H      -50.19110000     -34.45700000     -71.40130000
S      -44.17220000     -37.10010000     -72.37900000
S      -49.10800000     -33.01230000     -69.93240000
C      -43.63210000     -35.62300000     -71.25370000
H      -44.24270000     -35.64300000     -70.36560000
H      -42.65320000     -35.92390000     -70.90900000
C      -47.67260000     -31.98360000     -70.26920000
H      -47.74810000     -30.96170000     -69.74470000
H      -47.74230000     -31.68840000     -71.33000000
C      -46.30530000     -32.75610000     -69.90860000
H      -46.43300000     -33.06560000     -68.85380000
H      -46.13950000     -33.58430000     -70.54350000
C      -43.81610000     -34.31230000     -72.02390000
H      -44.88580000     -34.01660000     -72.10720000
H      -43.42340000     -34.48930000     -73.04830000
C      -43.11860000     -33.18220000     -71.33140000
C      -41.78940000     -32.95240000     -71.57300000
C      -43.77480000     -32.11980000     -70.56120000
H      -41.10080000     -33.66460000     -72.11020000
C      -42.78200000     -31.15360000     -70.24170000
C      -45.09940000     -31.78110000     -70.00450000
C      -44.98140000     -30.62020000     -69.29140000
S      -41.23550000     -31.41170000     -70.95650000
S      -43.45770000     -29.79660000     -69.38230000
H      -45.70460000     -30.23360000     -68.58280000
