40
Properties=species:S:1:pos:R:3 #=T CELL(abcABC):=T 1.889726e+02=T 90.00000=T Traj:=T positionsangstrom=T Step:=T 0=T Bead:=T pbc="F F F"
C      -45.54570000     -31.07440000     -70.81020000
C      -44.28920000     -31.48380000     -70.26870000
C      -44.20000000     -32.39630000     -69.22990000
C      -45.39790000     -33.07540000     -68.80040000
C      -46.60810000     -32.59260000     -69.23930000
C      -46.73030000     -31.65200000     -70.29630000
H      -45.64250000     -30.31490000     -71.54350000
H      -43.23340000     -32.65480000     -68.74260000
H      -47.62070000     -32.92340000     -68.89250000
H      -47.82460000     -31.38590000     -70.57590000
C      -45.42120000     -34.10090000     -67.74740000
H      -46.25760000     -33.82350000     -67.05600000
H      -44.44220000     -34.13380000     -67.25790000
C      -43.09750000     -30.75650000     -70.66760000
H      -43.11270000     -29.58040000     -70.45460000
H      -42.19770000     -31.14990000     -70.13880000
S      -45.68830000     -35.84960000     -68.44240000
S      -42.66050000     -30.85040000     -72.46460000
C      -44.30970000     -36.14450000     -69.69170000
H      -43.55970000     -35.32990000     -69.61050000
H      -43.85070000     -37.12230000     -69.47610000
C      -42.13230000     -32.59770000     -72.79120000
H      -41.24910000     -32.88530000     -72.22780000
H      -41.81080000     -32.64250000     -73.83980000
C      -43.14840000     -33.64710000     -72.42430000
H      -42.75990000     -34.63160000     -72.66240000
H      -43.30260000     -33.54210000     -71.35420000
C      -44.97320000     -36.26880000     -71.09000000
H      -45.41190000     -37.25470000     -71.17200000
H      -44.18800000     -36.26520000     -71.81640000
C      -45.97370000     -35.23540000     -71.52730000
C      -47.35840000     -35.36610000     -71.24360000
C      -45.73440000     -34.14850000     -72.47180000
H      -47.92190000     -36.03850000     -70.53980000
C      -46.91110000     -33.73480000     -73.04050000
C      -44.57250000     -33.54110000     -73.06280000
C      -44.91220000     -32.64750000     -74.06670000
S      -48.33380000     -34.26410000     -72.13440000
S      -46.65720000     -32.62110000     -74.35040000
H      -44.18070000     -32.17130000     -74.68580000
