40
Properties=species:S:1:pos:R:3 #=T CELL(abcABC):=T 1.889726e+02=T 90.00000=T Traj:=T positionsangstrom=T Step:=T 0=T Bead:=T pbc="F F F"
C      -48.14770000     -34.21470000     -73.78690000
C      -48.36100000     -34.43910000     -72.36480000
C      -47.71430000     -35.49490000     -71.76750000
C      -46.76030000     -36.24670000     -72.49820000
C      -46.57970000     -36.10170000     -73.87340000
C      -47.20120000     -34.96260000     -74.45780000
H      -48.70700000     -33.41360000     -74.28940000
H      -47.94430000     -35.77770000     -70.74160000
H      -45.88750000     -36.63380000     -74.53390000
H      -47.14210000     -34.77940000     -75.48650000
C      -45.85500000     -37.16830000     -71.59230000
H      -46.04840000     -38.22930000     -71.96940000
H      -46.20640000     -37.00660000     -70.56280000
C      -49.40830000     -33.63970000     -71.68770000
H      -49.65230000     -32.71990000     -72.16660000
H      -50.34930000     -34.11100000     -71.54890000
S      -44.07880000     -36.95840000     -71.65060000
S      -49.00720000     -33.21320000     -70.02520000
C      -43.81620000     -35.15600000     -71.18210000
H      -44.73750000     -34.93580000     -70.61410000
H      -42.99360000     -35.11690000     -70.49900000
C      -47.59840000     -31.97450000     -70.28360000
H      -47.58250000     -31.32210000     -69.42920000
H      -47.88290000     -31.19470000     -71.10940000
C      -46.18830000     -32.68770000     -70.41080000
H      -45.87280000     -33.27760000     -69.50920000
H      -46.06800000     -33.34360000     -71.30730000
C      -43.64960000     -34.12010000     -72.35030000
H      -44.62960000     -34.08210000     -72.76990000
H      -42.92140000     -34.42700000     -73.02980000
C      -43.16050000     -32.78810000     -71.79680000
C      -41.79850000     -32.52190000     -71.88050000
C      -43.76170000     -31.81510000     -70.93260000
H      -41.15830000     -33.08040000     -72.62070000
C      -42.84620000     -30.90990000     -70.39240000
C      -45.05370000     -31.57510000     -70.41040000
C      -45.14380000     -30.59070000     -69.52390000
S      -41.20950000     -31.13680000     -71.03660000
S      -43.60850000     -29.74110000     -69.31730000
H      -45.95260000     -30.24910000     -68.85080000
