40
Properties=species:S:1:pos:R:3 #=T CELL(abcABC):=T 1.889726e+02=T 90.00000=T Traj:=T positionsangstrom=T Step:=T 0=T Bead:=T pbc="F F F"
C      -48.55940000     -34.01550000     -67.73750000
C      -48.26980000     -32.97550000     -68.64080000
C      -47.11230000     -32.22430000     -68.32010000
C      -46.19090000     -32.59430000     -67.28930000
C      -46.66080000     -33.54250000     -66.33230000
C      -47.85110000     -34.21550000     -66.57700000
H      -49.42000000     -34.66870000     -67.94090000
H      -46.76730000     -31.50320000     -69.09320000
H      -46.02530000     -33.85140000     -65.49940000
H      -48.22760000     -35.00380000     -65.95550000
C      -44.78860000     -32.08850000     -67.36240000
H      -44.30920000     -32.16180000     -66.33510000
H      -44.75390000     -31.04840000     -67.70460000
C      -48.95140000     -32.79650000     -69.97310000
H      -50.04050000     -32.77620000     -69.85490000
H      -48.76600000     -31.84650000     -70.41330000
S      -43.73320000     -33.31950000     -68.30790000
S      -48.52070000     -34.10640000     -71.19400000
C      -43.90290000     -32.84360000     -70.10680000
H      -44.89030000     -32.66250000     -70.29600000
H      -43.23390000     -31.94980000     -70.27730000
C      -47.17680000     -33.25320000     -72.17750000
H      -46.46700000     -32.80990000     -71.37980000
H      -47.71530000     -32.60220000     -72.81500000
C      -46.42570000     -34.31120000     -72.94630000
H      -46.13020000     -35.10400000     -72.31450000
H      -47.26460000     -34.78810000     -73.47180000
C      -43.41330000     -33.86560000     -71.09340000
H      -43.93500000     -34.79480000     -71.13740000
H      -42.39070000     -34.12990000     -70.75080000
C      -43.17190000     -33.35820000     -72.47810000
C      -41.89230000     -32.99280000     -72.84060000
C      -44.00410000     -33.42840000     -73.61870000
H      -41.08180000     -32.99840000     -72.16470000
C      -43.33800000     -33.22370000     -74.80260000
C      -45.35890000     -33.86810000     -73.88100000
C      -45.64030000     -34.05420000     -75.20100000
S      -41.63190000     -32.94060000     -74.56450000
S      -44.26190000     -33.66960000     -76.26540000
H      -46.57040000     -34.48450000     -75.61260000
