40
Properties=species:S:1:pos:R:3 #=T CELL(abcABC):=T 1.889726e+02=T 90.00000=T Traj:=T positionsangstrom=T Step:=T 0=T Bead:=T pbc="F F F"
C      -48.65880000     -33.84940000     -67.94280000
C      -48.21380000     -32.99210000     -68.95800000
C      -46.93670000     -32.39030000     -68.79480000
C      -46.11400000     -32.60310000     -67.66700000
C      -46.61860000     -33.51490000     -66.69710000
C      -47.91280000     -34.03360000     -66.76540000
H      -49.63030000     -34.37070000     -68.00660000
H      -46.55780000     -31.77060000     -69.55040000
H      -46.01580000     -33.85620000     -65.84730000
H      -48.23870000     -34.76050000     -65.96770000
C      -44.80180000     -31.96880000     -67.66110000
H      -44.57530000     -31.67110000     -66.66810000
H      -44.73870000     -31.00850000     -68.28210000
C      -49.04940000     -32.65010000     -70.17910000
H      -50.10660000     -32.59900000     -69.88650000
H      -48.73120000     -31.70660000     -70.67430000
S      -43.25780000     -32.86350000     -68.34420000
S      -48.83790000     -34.10110000     -71.45090000
C      -43.46320000     -32.68660000     -70.18130000
H      -44.40810000     -32.02720000     -70.35230000
H      -42.62400000     -32.12410000     -70.52460000
C      -47.24450000     -33.51540000     -72.23080000
H      -46.60920000     -32.90220000     -71.56070000
H      -47.34340000     -32.66490000     -73.00200000
C      -46.42170000     -34.69740000     -72.70710000
H      -45.98150000     -35.20160000     -71.87180000
H      -47.06940000     -35.38180000     -73.18200000
C      -43.42090000     -34.03520000     -70.82230000
H      -44.28630000     -34.68420000     -70.74910000
H      -42.56860000     -34.48520000     -70.42570000
C      -43.16580000     -33.79460000     -72.24350000
C      -41.90170000     -33.47010000     -72.62090000
C      -44.08510000     -33.70790000     -73.35910000
H      -40.96880000     -33.39940000     -72.01210000
C      -43.45510000     -33.27090000     -74.51580000
C      -45.34740000     -34.28740000     -73.67770000
C      -45.59600000     -34.21750000     -75.00620000
S      -41.74580000     -32.98800000     -74.33100000
S      -44.44840000     -33.32770000     -75.93240000
H      -46.60020000     -34.38140000     -75.38580000
