40
Properties=species:S:1:pos:R:3 #=T CELL(abcABC):=T 1.889726e+02=T 90.00000=T Traj:=T positionsangstrom=T Step:=T 0=T Bead:=T pbc="F F F"
C      -48.52180000     -33.85880000     -67.79670000
C      -48.15360000     -32.97210000     -68.80010000
C      -46.89570000     -32.34320000     -68.67790000
C      -46.11770000     -32.59430000     -67.53010000
C      -46.52670000     -33.52670000     -66.56620000
C      -47.75530000     -34.12380000     -66.70680000
H      -49.48160000     -34.37150000     -67.86780000
H      -46.67280000     -31.55860000     -69.35310000
H      -45.94370000     -33.65480000     -65.66250000
H      -48.16510000     -34.76520000     -65.87610000
C      -44.79700000     -31.92850000     -67.35930000
H      -44.63390000     -31.86840000     -66.33990000
H      -44.69390000     -30.94510000     -67.84620000
C      -49.10070000     -32.69720000     -70.01330000
H      -50.15840000     -32.84230000     -69.66850000
H      -48.93770000     -31.80650000     -70.55640000
S      -43.65390000     -33.17430000     -68.27480000
S      -48.76110000     -34.08540000     -71.25850000
C      -43.77180000     -32.64820000     -70.04940000
H      -44.83100000     -32.32230000     -70.20160000
H      -43.17750000     -31.80110000     -70.37790000
C      -47.23820000     -33.51480000     -72.24920000
H      -46.77430000     -32.80140000     -71.58620000
H      -47.54810000     -32.97380000     -73.13510000
C      -46.38850000     -34.62660000     -72.76390000
H      -45.88970000     -35.17080000     -71.92980000
H      -46.97610000     -35.32930000     -73.40190000
C      -43.48460000     -33.83160000     -70.92870000
H      -44.34200000     -34.51860000     -70.80470000
H      -42.68790000     -34.47480000     -70.44300000
C      -43.14050000     -33.61380000     -72.38380000
C      -41.90070000     -33.20990000     -72.74140000
C      -43.88120000     -33.83750000     -73.63790000
H      -41.00560000     -32.99950000     -72.18590000
C      -43.23930000     -33.53920000     -74.82070000
C      -45.30750000     -34.10270000     -73.79240000
C      -45.68910000     -33.83750000     -75.06750000
S      -41.66480000     -32.91820000     -74.47670000
S      -44.34770000     -33.45240000     -76.14210000
H      -46.68510000     -34.12560000     -75.45900000
