40
Properties=species:S:1:pos:R:3 #=T CELL(abcABC):=T 1.889726e+02=T 90.00000=T Traj:=T positionsangstrom=T Step:=T 0=T Bead:=T pbc="F F F"
C      -47.64860000     -36.83460000     -71.32010000
C      -47.41730000     -35.81400000     -70.38140000
C      -46.21190000     -35.73620000     -69.68090000
C      -45.22160000     -36.75240000     -69.79800000
C      -45.50190000     -37.79920000     -70.70140000
C      -46.68510000     -37.83510000     -71.42350000
H      -48.64330000     -36.83100000     -71.75010000
H      -45.97780000     -34.84750000     -69.06810000
H      -44.88200000     -38.69620000     -70.69140000
H      -46.77460000     -38.55070000     -72.20020000
C      -43.92710000     -36.73730000     -69.19700000
H      -43.58610000     -37.82920000     -69.00860000
H      -43.96220000     -36.24540000     -68.15810000
C      -48.53200000     -34.85790000     -70.18230000
H      -49.48110000     -35.44360000     -69.95490000
H      -48.45240000     -34.16490000     -69.33510000
S      -42.59240000     -36.11580000     -70.29600000
S      -48.95630000     -33.97270000     -71.75620000
C      -42.80280000     -34.24090000     -70.47970000
H      -42.98890000     -33.86950000     -69.44940000
H      -41.75600000     -33.90550000     -70.73520000
C      -47.32460000     -32.98670000     -72.03040000
H      -47.53000000     -32.37060000     -72.90210000
H      -46.49430000     -33.61830000     -72.45730000
C      -46.88040000     -32.10570000     -70.83110000
H      -47.77290000     -31.66580000     -70.42170000
H      -46.32230000     -32.65250000     -70.08490000
C      -43.92550000     -33.71390000     -71.33140000
H      -44.90950000     -33.88500000     -70.88080000
H      -44.03560000     -34.35450000     -72.18000000
C      -43.71850000     -32.29230000     -71.89240000
C      -42.58500000     -31.89900000     -72.58290000
C      -44.59870000     -31.12900000     -71.62180000
H      -41.73240000     -32.48540000     -72.96250000
C      -44.04060000     -29.94390000     -72.11910000
C      -45.96100000     -30.97140000     -71.21160000
C      -46.46100000     -29.73600000     -71.59050000
S      -42.63770000     -30.18440000     -73.03660000
S      -45.34730000     -28.68490000     -72.29130000
H      -47.49570000     -29.50410000     -71.30290000
