40
Properties=species:S:1:pos:R:3 #=T CELL(abcABC):=T 1.889726e+02=T 90.00000=T Traj:=T positionsangstrom=T Step:=T 0=T Bead:=T pbc="F F F"
C      -42.74070000     -36.28260000     -70.46440000
C      -44.04860000     -36.24870000     -69.92230000
C      -45.16480000     -36.30330000     -70.71880000
C      -45.00080000     -36.63660000     -72.08500000
C      -43.75430000     -36.75940000     -72.63950000
C      -42.59700000     -36.47540000     -71.86950000
H      -41.87130000     -36.03170000     -69.82930000
H      -46.11190000     -36.11630000     -70.30530000
H      -43.60680000     -36.93930000     -73.67680000
H      -41.61200000     -36.44390000     -72.38440000
C      -46.26850000     -36.87970000     -72.90760000
H      -47.00560000     -37.28080000     -72.25050000
H      -46.12470000     -37.46570000     -73.79620000
C      -44.15350000     -35.95350000     -68.44180000
H      -44.53540000     -36.90140000     -67.97110000
H      -43.16530000     -35.68830000     -67.99640000
S      -46.94600000     -35.30480000     -73.66270000
S      -45.33700000     -34.65610000     -67.99370000
C      -47.83350000     -34.38850000     -72.25790000
H      -48.61490000     -33.89260000     -72.69720000
H      -48.18470000     -35.09320000     -71.47790000
C      -44.62070000     -33.24870000     -69.07600000
H      -44.61340000     -33.54240000     -70.12120000
H      -43.55710000     -33.05130000     -68.87430000
C      -45.40020000     -31.98250000     -68.93610000
H      -46.40670000     -32.36860000     -68.97250000
H      -45.43790000     -31.42790000     -67.95510000
C      -47.07860000     -33.43490000     -71.38950000
H      -46.37290000     -34.00910000     -70.81480000
H      -47.85330000     -33.14980000     -70.64190000
C      -46.42370000     -32.22160000     -72.08450000
C      -46.52150000     -31.89880000     -73.43370000
C      -45.51760000     -31.28930000     -71.41990000
H      -47.18370000     -32.35280000     -74.12510000
C      -45.23030000     -30.14520000     -72.18840000
C      -45.20500000     -31.00910000     -70.01960000
C      -44.71060000     -29.72950000     -69.83270000
S      -45.79440000     -30.34210000     -73.86080000
S      -44.33860000     -28.83670000     -71.39680000
H      -44.32950000     -29.30860000     -68.85810000
