40
Properties=species:S:1:pos:R:3 #=T CELL(abcABC):=T 1.889726e+02=T 90.00000=T Traj:=T positionsangstrom=T Step:=T 0=T Bead:=T pbc="F F F"
C      -44.45480000     -37.08950000     -71.82130000
C      -45.66070000     -36.72470000     -71.09990000
C      -45.65530000     -36.34630000     -69.79180000
C      -44.44660000     -36.13570000     -69.05360000
C      -43.27230000     -36.54480000     -69.70960000
C      -43.26520000     -36.87230000     -71.12800000
H      -44.53410000     -37.56760000     -72.81680000
H      -46.58790000     -36.07420000     -69.37830000
H      -42.34670000     -36.45690000     -69.19180000
H      -42.42120000     -37.18280000     -71.61640000
C      -44.39120000     -35.61520000     -67.64600000
H      -43.33790000     -35.61550000     -67.24520000
H      -45.09710000     -36.20000000     -67.00720000
C      -46.99180000     -36.79490000     -71.85720000
H      -46.75600000     -37.05870000     -72.91900000
H      -47.56460000     -37.61380000     -71.52370000
S      -45.04680000     -33.81460000     -67.52140000
S      -48.03570000     -35.28040000     -71.58880000
C      -44.30490000     -33.12790000     -69.13180000
H      -43.59780000     -32.32600000     -68.78450000
H      -43.63510000     -33.90550000     -69.56110000
C      -47.24440000     -34.11950000     -72.81750000
H      -47.62100000     -34.27770000     -73.92780000
H      -46.17190000     -34.16650000     -72.78050000
C      -47.59660000     -32.62610000     -72.40270000
H      -48.53470000     -32.34520000     -72.75750000
H      -47.74860000     -32.52540000     -71.37340000
C      -45.37000000     -32.51770000     -70.02710000
H      -46.18000000     -32.07630000     -69.38860000
H      -45.89320000     -33.41080000     -70.54970000
C      -44.79500000     -31.57500000     -71.09780000
C      -43.56590000     -30.98650000     -71.02230000
C      -45.45780000     -31.18380000     -72.33730000
H      -42.82580000     -30.84070000     -70.19340000
C      -44.71920000     -30.28230000     -73.06490000
C      -46.60360000     -31.63310000     -73.03900000
C      -46.67460000     -31.13840000     -74.31760000
S      -43.21760000     -29.76590000     -72.35050000
S      -45.23680000     -30.12120000     -74.72410000
H      -47.48390000     -31.35590000     -74.93580000
