40
Properties=species:S:1:pos:R:3 #=T CELL(abcABC):=T 1.889726e+02=T 90.00000=T Traj:=T positionsangstrom=T Step:=T 0=T Bead:=T pbc="F F F"
C      -47.63750000     -37.00800000     -71.09290000
C      -47.43560000     -35.90570000     -70.26700000
C      -46.25290000     -35.72740000     -69.54150000
C      -45.14930000     -36.60700000     -69.77830000
C      -45.32390000     -37.68060000     -70.70310000
C      -46.54210000     -37.89600000     -71.33510000
H      -48.54710000     -37.20000000     -71.58970000
H      -46.19580000     -34.93040000     -68.78520000
H      -44.39850000     -38.20450000     -70.88980000
H      -46.80280000     -38.69650000     -72.00460000
C      -43.87010000     -36.21070000     -69.11180000
H      -43.56240000     -36.90230000     -68.35330000
H      -43.99020000     -35.32260000     -68.57460000
C      -48.57130000     -34.81780000     -70.07460000
H      -49.49190000     -35.27470000     -69.79430000
H      -48.36250000     -34.05240000     -69.29130000
S      -42.52220000     -35.98480000     -70.36030000
S      -48.97940000     -33.96030000     -71.71220000
C      -42.63790000     -34.14700000     -70.42640000
H      -42.70580000     -33.74320000     -69.47410000
H      -41.71180000     -33.77470000     -70.90200000
C      -47.33670000     -33.16440000     -71.95540000
H      -47.42150000     -32.59000000     -72.86060000
H      -46.62040000     -33.99190000     -72.17030000
C      -46.89280000     -32.22330000     -70.79810000
H      -47.80650000     -31.89040000     -70.24200000
H      -46.25830000     -32.79550000     -70.13280000
C      -43.85240000     -33.69620000     -71.24470000
H      -44.69030000     -33.86230000     -70.58920000
H      -43.95640000     -34.45350000     -72.06800000
C      -43.74170000     -32.35650000     -71.92250000
C      -42.55430000     -31.87280000     -72.46720000
C      -44.71120000     -31.27070000     -71.90720000
H      -41.68770000     -32.40780000     -72.80860000
C      -44.29900000     -30.13400000     -72.54140000
C      -46.03380000     -31.11800000     -71.35330000
C      -46.55570000     -29.83300000     -71.48660000
S      -42.70980000     -30.23090000     -73.16260000
S      -45.37200000     -28.71700000     -72.34490000
H      -47.55300000     -29.50710000     -71.05020000
