40
Properties=species:S:1:pos:R:3 #=T CELL(abcABC):=T 1.889726e+02=T 90.00000=T Traj:=T positionsangstrom=T Step:=T 0=T Bead:=T pbc="F F F"
C      -45.55190000     -30.93920000     -70.89730000
C      -44.99870000     -31.51120000     -69.77550000
C      -45.79090000     -32.45240000     -69.12010000
C      -47.04560000     -32.85100000     -69.67350000
C      -47.51050000     -32.33300000     -70.85180000
C      -46.72080000     -31.31570000     -71.44240000
H      -44.93940000     -30.10380000     -71.28440000
H      -45.53560000     -32.89290000     -68.11150000
H      -48.36470000     -32.74520000     -71.41180000
H      -47.09260000     -30.67970000     -72.27550000
C      -47.79720000     -33.91640000     -68.89130000
H      -48.84760000     -33.78640000     -68.96890000
H      -47.55380000     -33.66890000     -67.88720000
C      -43.58670000     -31.05450000     -69.16620000
H      -43.62780000     -30.11450000     -68.71070000
H      -43.27500000     -31.75070000     -68.42360000
S      -47.38590000     -35.67320000     -69.28880000
S      -42.35630000     -31.05750000     -70.56000000
C      -45.55340000     -35.70780000     -69.39920000
H      -45.30790000     -34.63570000     -69.31710000
H      -45.03760000     -36.12920000     -68.61210000
C      -41.72780000     -32.91740000     -70.75580000
H      -41.23870000     -33.21230000     -69.73760000
H      -40.96750000     -32.95140000     -71.51870000
C      -42.82820000     -33.89440000     -71.00270000
H      -42.37180000     -34.85810000     -71.14880000
H      -43.53580000     -34.02460000     -70.10490000
C      -45.07390000     -36.30770000     -70.78720000
H      -45.40310000     -37.34890000     -70.91470000
H      -43.98970000     -36.32190000     -70.70140000
C      -45.60590000     -35.47920000     -71.91660000
C      -46.78090000     -35.76340000     -72.61210000
C      -44.92790000     -34.32600000     -72.48310000
H      -47.40290000     -36.63080000     -72.46100000
C      -45.65240000     -33.74560000     -73.54150000
C      -43.72170000     -33.54910000     -72.22350000
C      -43.66000000     -32.41150000     -73.05210000
S      -47.11250000     -34.62110000     -73.93770000
S      -45.00390000     -32.23870000     -74.16420000
H      -42.84170000     -31.68070000     -73.14210000
