40
Properties=species:S:1:pos:R:3 #=T CELL(abcABC):=T 1.889726e+02=T 90.00000=T Traj:=T positionsangstrom=T Step:=T 0=T Bead:=T pbc="F F F"
C      -47.68420000     -37.01220000     -71.39850000
C      -47.43170000     -35.93580000     -70.49770000
C      -46.25730000     -35.97570000     -69.71760000
C      -45.23970000     -36.89120000     -70.02400000
C      -45.53750000     -37.94250000     -70.90780000
C      -46.76420000     -38.04950000     -71.59840000
H      -48.63040000     -36.79550000     -71.98900000
H      -46.13210000     -35.18810000     -68.95410000
H      -44.78420000     -38.65840000     -71.16140000
H      -46.74120000     -38.97180000     -72.24560000
C      -43.91540000     -36.77790000     -69.24660000
H      -43.59910000     -37.72160000     -69.02250000
H      -44.03010000     -36.11470000     -68.42200000
C      -48.38550000     -34.79890000     -70.23320000
H      -49.30040000     -35.11260000     -69.69350000
H      -47.80280000     -34.11520000     -69.67620000
S      -42.61200000     -35.93560000     -70.32590000
S      -48.88140000     -33.93660000     -71.73430000
C      -42.90790000     -34.14000000     -70.37320000
H      -43.29460000     -33.83520000     -69.40140000
H      -42.01820000     -33.64510000     -70.63440000
C      -47.49860000     -32.70270000     -72.13510000
H      -47.94800000     -31.99470000     -72.80530000
H      -46.66780000     -33.21330000     -72.51030000
C      -47.12510000     -31.88270000     -70.91370000
H      -47.97660000     -31.38030000     -70.43630000
H      -46.82660000     -32.63680000     -70.06850000
C      -43.94890000     -33.81880000     -71.46450000
H      -44.95970000     -34.06640000     -71.07460000
H      -43.71330000     -34.43250000     -72.36920000
C      -43.79940000     -32.33100000     -71.94280000
C      -42.51490000     -31.96000000     -72.32360000
C      -44.76460000     -31.21020000     -71.89240000
H      -41.56420000     -32.52560000     -72.33010000
C      -44.11680000     -30.05480000     -72.31070000
C      -46.03240000     -30.91130000     -71.24920000
C      -46.45830000     -29.59560000     -71.32190000
S      -42.47300000     -30.28310000     -72.80440000
S      -45.19640000     -28.61430000     -72.06780000
H      -47.42640000     -29.28260000     -70.98440000
