40
Properties=species:S:1:pos:R:3 #=T CELL(abcABC):=T 1.889726e+02=T 90.00000=T Traj:=T positionsangstrom=T Step:=T 0=T Bead:=T pbc="F F F"
C      -46.73740000     -37.09320000     -70.32410000
C      -46.66590000     -35.97140000     -69.43510000
C      -45.40820000     -35.54350000     -68.98820000
C      -44.23280000     -36.26500000     -69.31050000
C      -44.31630000     -37.37060000     -70.10890000
C      -45.54510000     -37.78110000     -70.58290000
H      -47.76970000     -37.44000000     -70.60030000
H      -45.35830000     -34.86970000     -68.11720000
H      -43.40930000     -37.99050000     -70.21350000
H      -45.62670000     -38.64980000     -71.17430000
C      -42.96020000     -35.81430000     -68.74190000
H      -42.34050000     -36.69810000     -68.31200000
H      -43.17290000     -35.14990000     -67.76650000
C      -47.83720000     -35.11510000     -69.05620000
H      -48.50560000     -35.66980000     -68.34840000
H      -47.54740000     -34.16250000     -68.58960000
S      -41.86170000     -34.96900000     -69.94020000
S      -48.83480000     -34.56590000     -70.47390000
C      -42.75720000     -33.35840000     -70.30980000
H      -43.15980000     -32.88670000     -69.36250000
H      -41.86040000     -32.77060000     -70.66570000
C      -47.60700000     -33.59940000     -71.50890000
H      -48.04530000     -33.42750000     -72.50790000
H      -46.77770000     -34.24670000     -71.77200000
C      -47.19600000     -32.27710000     -70.88110000
H      -48.09820000     -31.82430000     -70.42830000
H      -46.51710000     -32.46650000     -70.06160000
C      -43.86670000     -33.42240000     -71.51550000
H      -44.91700000     -33.71680000     -71.19350000
H      -43.50280000     -34.16190000     -72.29090000
C      -44.05410000     -32.15450000     -72.30290000
C      -43.00590000     -31.66690000     -73.10660000
C      -45.21690000     -31.28340000     -72.41840000
H      -42.09420000     -32.17830000     -73.42950000
C      -45.07210000     -30.28980000     -73.39350000
C      -46.59080000     -31.32440000     -71.87410000
C      -47.44780000     -30.44990000     -72.55470000
S      -43.47390000     -30.22160000     -74.14230000
S      -46.63460000     -29.50260000     -73.75610000
H      -48.51720000     -30.23570000     -72.43310000
