40
Properties=species:S:1:pos:R:3 #=T CELL(abcABC):=T 1.889726e+02=T 90.00000=T Traj:=T positionsangstrom=T Step:=T 0=T Bead:=T pbc="F F F"
C      -48.07440000     -33.61250000     -72.12510000
C      -47.58870000     -33.65810000     -73.44600000
C      -46.82470000     -32.56810000     -73.91910000
C      -46.78160000     -31.42290000     -73.11230000
C      -47.34030000     -31.40350000     -71.78980000
C      -47.96580000     -32.53200000     -71.31010000
H      -48.50130000     -34.55520000     -71.77920000
H      -46.35150000     -32.53700000     -74.90460000
H      -47.33600000     -30.46770000     -71.23290000
H      -48.29840000     -32.50710000     -70.32490000
C      -45.97220000     -30.29770000     -73.66680000
H      -46.05680000     -29.35180000     -73.12880000
H      -46.12450000     -30.11920000     -74.71480000
C      -47.80800000     -34.94640000     -74.18340000
H      -48.63960000     -35.51420000     -73.74220000
H      -48.05290000     -34.80550000     -75.21990000
S      -44.12950000     -30.96650000     -73.62720000
S      -46.21450000     -35.94970000     -74.15970000
C      -43.98500000     -31.27160000     -71.84990000
H      -43.78960000     -30.34550000     -71.30830000
H      -45.00840000     -31.63430000     -71.55230000
C      -45.62670000     -36.23250000     -72.36850000
H      -44.93860000     -37.01780000     -72.53270000
H      -46.46470000     -36.59430000     -71.75520000
C      -44.93570000     -34.96650000     -71.80670000
H      -43.93260000     -34.96500000     -72.11170000
H      -45.38790000     -34.15260000     -72.28710000
C      -42.96240000     -32.36740000     -71.53790000
H      -41.86750000     -32.12660000     -71.58610000
H      -43.18300000     -33.22000000     -72.20740000
C      -43.16030000     -32.86740000     -70.08020000
C      -42.60000000     -32.19780000     -69.06180000
C      -44.12870000     -33.90800000     -69.68650000
H      -41.85340000     -31.40000000     -69.21610000
C      -44.27830000     -33.86540000     -68.28570000
C      -45.01300000     -34.81960000     -70.32510000
C      -45.84930000     -35.40300000     -69.41030000
S      -43.13330000     -32.72250000     -67.47810000
S      -45.52210000     -34.94460000     -67.71560000
H      -46.71430000     -36.08570000     -69.63260000
