40
Properties=species:S:1:pos:R:3 #=T CELL(abcABC):=T 1.889726e+02=T 90.00000=T Traj:=T positionsangstrom=T Step:=T 0=T Bead:=T pbc="F F F"
C      -48.62930000     -33.25430000     -72.69190000
C      -47.70260000     -33.69110000     -73.63070000
C      -46.60000000     -32.89340000     -73.97000000
C      -46.56430000     -31.52100000     -73.53880000
C      -47.52600000     -31.08810000     -72.61910000
C      -48.53180000     -31.95850000     -72.18130000
H      -49.46540000     -33.97840000     -72.39340000
H      -45.90160000     -33.20080000     -74.69190000
H      -47.50400000     -30.06280000     -72.33000000
H      -49.22860000     -31.60080000     -71.34710000
C      -45.49410000     -30.52470000     -73.99140000
H      -45.76270000     -29.53700000     -73.56180000
H      -45.42740000     -30.35220000     -74.98460000
C      -47.75930000     -35.09810000     -74.14420000
H      -48.29440000     -35.72820000     -73.51180000
H      -48.20740000     -35.24330000     -75.16020000
S      -43.76490000     -30.93830000     -73.49690000
S      -46.07640000     -35.91120000     -74.17720000
C      -43.93820000     -30.91130000     -71.64130000
H      -43.57950000     -29.95170000     -71.28520000
H      -45.02390000     -31.06500000     -71.44040000
C      -45.65060000     -36.12930000     -72.33300000
H      -44.92420000     -36.85960000     -72.47060000
H      -46.48590000     -36.62740000     -71.78220000
C      -45.07580000     -34.82630000     -71.69540000
H      -44.11520000     -34.64380000     -72.14020000
H      -45.85550000     -34.11200000     -71.93540000
C      -43.21600000     -32.12930000     -71.17320000
H      -42.15460000     -32.16260000     -71.09080000
H      -43.34130000     -32.97950000     -71.86970000
C      -43.61140000     -32.60990000     -69.77800000
C      -43.19940000     -31.88770000     -68.69060000
C      -44.28970000     -33.76110000     -69.35920000
H      -42.67870000     -30.93530000     -68.81160000
C      -44.30240000     -34.00270000     -68.02960000
C      -44.85850000     -34.87100000     -70.16810000
C      -45.48700000     -35.80430000     -69.40140000
S      -43.40560000     -32.77970000     -67.15980000
S      -45.13410000     -35.51990000     -67.70390000
H      -45.85760000     -36.78120000     -69.74190000
