40
Properties=species:S:1:pos:R:3 #=T CELL(abcABC):=T 1.889726e+02=T 90.00000=T Traj:=T positionsangstrom=T Step:=T 0=T Bead:=T pbc="F F F"
C      -48.50520000     -33.37860000     -72.49500000
C      -47.62740000     -33.73660000     -73.50570000
C      -46.62410000     -32.81620000     -73.96460000
C      -46.59380000     -31.53430000     -73.42210000
C      -47.56110000     -31.13420000     -72.44990000
C      -48.40800000     -32.08960000     -71.88830000
H      -49.08490000     -34.13500000     -71.96630000
H      -45.74250000     -33.15900000     -74.49840000
H      -47.43130000     -30.13220000     -72.01090000
H      -49.19020000     -31.83480000     -71.11540000
C      -45.63590000     -30.52610000     -74.06430000
H      -45.90560000     -29.41790000     -73.92470000
H      -45.57670000     -30.67690000     -75.19470000
C      -47.70570000     -35.17080000     -74.06290000
H      -48.43640000     -35.76640000     -73.47810000
H      -48.11740000     -35.15740000     -75.08730000
S      -43.82500000     -30.62420000     -73.50140000
S      -46.07970000     -36.12170000     -74.09770000
C      -43.91950000     -31.02170000     -71.72780000
H      -43.67860000     -30.14300000     -71.07550000
H      -44.86570000     -31.26090000     -71.29750000
C      -45.77710000     -36.15640000     -72.26700000
H      -45.32990000     -37.14840000     -71.97570000
H      -46.66600000     -36.06810000     -71.69220000
C      -44.93520000     -34.97120000     -71.74960000
H      -43.89510000     -34.96130000     -72.18670000
H      -45.18190000     -34.00060000     -72.19010000
C      -42.94240000     -32.12790000     -71.26360000
H      -41.99920000     -31.59560000     -71.24870000
H      -42.89500000     -32.90350000     -72.06850000
C      -43.32280000     -32.64430000     -69.88780000
C      -42.86090000     -32.14760000     -68.68800000
C      -44.20480000     -33.73950000     -69.58840000
H      -42.11750000     -31.36690000     -68.68020000
C      -44.29940000     -33.98370000     -68.22660000
C      -44.89100000     -34.83310000     -70.26860000
C      -45.54130000     -35.73500000     -69.47010000
S      -43.63110000     -32.71950000     -67.20560000
S      -45.30230000     -35.37070000     -67.78420000
H      -46.02980000     -36.70170000     -69.79300000
