40
Properties=species:S:1:pos:R:3 #=T CELL(abcABC):=T 1.889726e+02=T 90.00000=T Traj:=T positionsangstrom=T Step:=T 0=T Bead:=T pbc="F F F"
C      -47.20710000     -37.13670000     -70.58930000
C      -47.23040000     -35.92610000     -69.81810000
C      -46.05950000     -35.58100000     -69.20320000
C      -44.80460000     -36.05970000     -69.53460000
C      -44.80520000     -37.17040000     -70.36840000
C      -45.98400000     -37.72210000     -70.91780000
H      -48.08390000     -37.51930000     -71.10110000
H      -46.12650000     -34.70790000     -68.53100000
H      -43.80600000     -37.50510000     -70.72400000
H      -45.88990000     -38.49760000     -71.62360000
C      -43.48830000     -35.69350000     -68.82240000
H      -43.17120000     -36.55640000     -68.12960000
H      -43.67180000     -34.81290000     -68.13450000
C      -48.46700000     -35.10090000     -69.53260000
H      -49.25240000     -35.84400000     -69.26020000
H      -48.34240000     -34.31840000     -68.76410000
S      -42.03230000     -35.33000000     -69.86800000
S      -49.04050000     -34.39290000     -71.15270000
C      -42.32510000     -33.79460000     -70.76560000
H      -42.09500000     -32.94810000     -70.20580000
H      -41.64180000     -33.81790000     -71.60400000
C      -47.53520000     -33.64460000     -71.83430000
H      -47.79800000     -33.31030000     -72.86290000
H      -46.71180000     -34.43020000     -72.02310000
C      -47.07720000     -32.47980000     -70.90020000
H      -47.94380000     -31.99110000     -70.50270000
H      -46.45740000     -32.97410000     -70.15460000
C      -43.69920000     -33.60670000     -71.43720000
H      -44.46280000     -33.50920000     -70.63300000
H      -43.88890000     -34.50850000     -72.02530000
C      -43.74940000     -32.30580000     -72.17730000
C      -42.73750000     -31.76690000     -72.88480000
C      -44.93720000     -31.41180000     -72.14030000
H      -41.72590000     -32.11170000     -73.00110000
C      -44.67980000     -30.28350000     -72.90040000
C      -46.33980000     -31.40390000     -71.69570000
C      -47.03160000     -30.30020000     -72.15260000
S      -43.04710000     -30.09240000     -73.59650000
S      -46.01070000     -29.19150000     -73.09340000
H      -48.06130000     -29.96430000     -72.09600000
