40
Properties=species:S:1:pos:R:3 #=T CELL(abcABC):=T 1.889726e+02=T 90.00000=T Traj:=T positionsangstrom=T Step:=T 0=T Bead:=T pbc="F F F"
C      -43.31170000     -30.11540000     -73.35610000
C      -44.07000000     -30.13500000     -72.16660000
C      -45.44400000     -30.38930000     -72.29970000
C      -46.08970000     -30.52950000     -73.56200000
C      -45.30250000     -30.57630000     -74.73820000
C      -43.94970000     -30.33120000     -74.60230000
H      -42.25170000     -29.92550000     -73.27620000
H      -46.12580000     -30.18670000     -71.47060000
H      -45.91670000     -30.90420000     -75.58620000
H      -43.35660000     -30.42520000     -75.56370000
C      -47.56610000     -30.69490000     -73.63380000
H      -47.89430000     -31.13720000     -74.56980000
H      -47.99650000     -29.68250000     -73.60300000
C      -43.49820000     -29.82740000     -70.81590000
H      -42.36760000     -29.85940000     -70.89210000
H      -43.69580000     -28.79710000     -70.52530000
S      -48.26640000     -31.78010000     -72.21500000
S      -44.10410000     -30.80500000     -69.46210000
C      -47.75280000     -33.52830000     -72.39990000
H      -48.57590000     -34.14790000     -71.81290000
H      -47.85540000     -33.85130000     -73.40680000
C      -43.83280000     -32.56220000     -69.96120000
H      -42.72150000     -32.82110000     -70.01540000
H      -44.18850000     -32.92020000     -70.92700000
C      -44.45970000     -33.49580000     -68.89890000
H      -44.03190000     -33.39550000     -67.80880000
H      -45.55050000     -33.24050000     -68.74660000
C      -46.36830000     -33.76890000     -71.81150000
H      -46.43190000     -33.15120000     -70.85330000
H      -45.55140000     -33.27840000     -72.33410000
C      -46.06230000     -35.21910000     -71.42920000
C      -46.63240000     -36.28480000     -72.04350000
C      -45.10330000     -35.66330000     -70.44820000
H      -47.42400000     -36.21610000     -72.74830000
C      -45.06680000     -37.00190000     -70.33280000
C      -44.42940000     -34.93850000     -69.28040000
C      -43.62330000     -35.84590000     -68.61880000
S      -46.05390000     -37.82730000     -71.45060000
S      -43.93220000     -37.51600000     -69.17140000
H      -43.05180000     -35.61340000     -67.77600000
