40
Properties=species:S:1:pos:R:3 #=T CELL(abcABC):=T 1.889726e+02=T 90.00000=T Traj:=T positionsangstrom=T Step:=T 0=T Bead:=T pbc="F F F"
C      -49.10890000     -32.51920000     -72.98580000
C      -48.07710000     -33.28150000     -73.60350000
C      -46.86250000     -32.69730000     -73.90080000
C      -46.62440000     -31.22290000     -73.72930000
C      -47.68420000     -30.50280000     -73.11740000
C      -48.88760000     -31.15640000     -72.70320000
H      -50.03460000     -32.94600000     -72.67120000
H      -46.08150000     -33.36190000     -74.39210000
H      -47.56200000     -29.43930000     -73.01580000
H      -49.71570000     -30.57050000     -72.19150000
C      -45.40910000     -30.54070000     -74.22080000
H      -45.39310000     -29.45900000     -74.14020000
H      -45.25210000     -30.82070000     -75.30300000
C      -48.27900000     -34.77760000     -73.85740000
H      -49.17070000     -35.11930000     -73.27600000
H      -48.62580000     -34.84850000     -74.92500000
S      -43.76870000     -31.02920000     -73.59570000
S      -46.86920000     -35.89750000     -73.48720000
C      -43.90310000     -31.58620000     -71.90220000
H      -43.76180000     -30.75570000     -71.29450000
H      -44.96540000     -31.96240000     -71.82590000
C      -46.54140000     -35.85530000     -71.65720000
H      -45.88960000     -36.77960000     -71.54680000
H      -47.57020000     -36.06050000     -71.09710000
C      -45.85350000     -34.63570000     -71.12830000
H      -45.26830000     -34.20800000     -71.94040000
H      -46.55400000     -33.89910000     -70.84300000
C      -42.90540000     -32.64960000     -71.54590000
H      -41.92870000     -32.20040000     -71.54200000
H      -43.01720000     -33.49650000     -72.18900000
C      -43.09840000     -33.13640000     -70.15690000
C      -42.35520000     -32.43980000     -69.21250000
C      -43.94400000     -34.10250000     -69.53330000
H      -41.79300000     -31.52920000     -69.35450000
C      -43.60080000     -34.30410000     -68.18070000
C      -45.06380000     -34.93680000     -69.92330000
C      -45.50370000     -35.75280000     -68.89100000
S      -42.52390000     -33.08390000     -67.55040000
S      -44.58400000     -35.52490000     -67.45330000
H      -46.34950000     -36.37320000     -68.90690000
