40
Properties=species:S:1:pos:R:3 #=T CELL(abcABC):=T 1.889726e+02=T 90.00000=T Traj:=T positionsangstrom=T Step:=T 0=T Bead:=T pbc="F F F"
C      -49.08930000     -32.62950000     -73.06510000
C      -47.96820000     -33.29420000     -73.60760000
C      -46.77810000     -32.63190000     -73.88710000
C      -46.68620000     -31.27690000     -73.54040000
C      -47.78900000     -30.58570000     -73.01470000
C      -48.94530000     -31.29900000     -72.76520000
H      -50.09270000     -33.15830000     -72.93170000
H      -45.94310000     -33.17750000     -74.37560000
H      -47.67340000     -29.51050000     -72.68870000
H      -49.73110000     -30.69480000     -72.29440000
C      -45.54820000     -30.34070000     -74.07150000
H      -45.63390000     -29.35390000     -73.57210000
H      -45.70630000     -30.17220000     -75.10590000
C      -48.23680000     -34.79370000     -73.88970000
H      -49.08820000     -35.15240000     -73.28460000
H      -48.51610000     -34.89670000     -74.90600000
S      -43.89170000     -31.03730000     -73.59180000
S      -46.76990000     -35.95390000     -73.64320000
C      -44.11230000     -31.64000000     -71.86410000
H      -44.10420000     -30.90110000     -71.04600000
H      -45.08900000     -32.16520000     -71.78300000
C      -46.51690000     -35.88580000     -71.80310000
H      -46.05950000     -36.77390000     -71.54110000
H      -47.47090000     -35.88350000     -71.42830000
C      -45.62410000     -34.73240000     -71.30460000
H      -44.85380000     -34.52850000     -72.04610000
H      -46.25480000     -33.79050000     -71.27420000
C      -43.04940000     -32.72840000     -71.58230000
H      -42.03180000     -32.36330000     -71.90900000
H      -43.21450000     -33.64530000     -72.16160000
C      -43.09820000     -33.02640000     -70.08720000
C      -42.19310000     -32.51880000     -69.15820000
C      -43.99380000     -33.97760000     -69.45440000
H      -41.42490000     -31.71010000     -69.26660000
C      -43.73150000     -34.10340000     -68.07570000
C      -45.05320000     -34.84110000     -69.90940000
C      -45.50800000     -35.69880000     -68.92750000
S      -42.37770000     -33.09610000     -67.50780000
S      -44.61470000     -35.47130000     -67.42740000
H      -46.35220000     -36.32860000     -69.06360000
