40
Properties=species:S:1:pos:R:3 #=T CELL(abcABC):=T 1.889726e+02=T 90.00000=T Traj:=T positionsangstrom=T Step:=T 0=T Bead:=T pbc="F F F"
C      -49.06730000     -32.11940000     -72.93240000
C      -48.15260000     -33.00270000     -73.48390000
C      -46.88540000     -32.44590000     -73.86070000
C      -46.50330000     -31.09810000     -73.71570000
C      -47.48900000     -30.25260000     -73.17280000
C      -48.76170000     -30.75360000     -72.77600000
H      -49.97670000     -32.50370000     -72.55210000
H      -46.16540000     -33.19780000     -74.16010000
H      -47.13960000     -29.26230000     -72.82570000
H      -49.48360000     -30.04290000     -72.23110000
C      -45.08000000     -30.64260000     -74.15130000
H      -44.96420000     -29.62750000     -73.81250000
H      -44.85260000     -30.63030000     -75.25570000
C      -48.57980000     -34.43690000     -73.65170000
H      -49.45550000     -34.65770000     -72.97460000
H      -49.04850000     -34.41430000     -74.62520000
S      -43.63630000     -31.75140000     -73.72530000
S      -47.16230000     -35.58840000     -73.58460000
C      -43.56650000     -31.77970000     -71.83750000
H      -43.18770000     -30.82910000     -71.42810000
H      -44.51470000     -32.00260000     -71.40430000
C      -46.72340000     -35.75050000     -71.81270000
H      -46.57610000     -36.84170000     -71.64480000
H      -47.55620000     -35.49770000     -71.17980000
C      -45.50190000     -34.82590000     -71.47610000
H      -44.68940000     -34.98320000     -72.16990000
H      -45.82290000     -33.75210000     -71.58300000
C      -42.55850000     -32.84560000     -71.39240000
H      -41.54430000     -32.45700000     -71.51150000
H      -42.70610000     -33.68420000     -72.06050000
C      -42.82760000     -33.24320000     -70.01940000
C      -42.17180000     -32.66780000     -68.98860000
C      -43.88980000     -34.14980000     -69.56730000
H      -41.49370000     -31.86530000     -68.96810000
C      -43.82780000     -34.28060000     -68.17880000
C      -44.99310000     -34.94180000     -70.09030000
C      -45.55660000     -35.69090000     -69.09640000
S      -42.70460000     -33.21370000     -67.35480000
S      -44.93530000     -35.45810000     -67.46740000
H      -46.38170000     -36.37810000     -69.15980000
