40
Properties=species:S:1:pos:R:3 #=T CELL(abcABC):=T 1.889726e+02=T 90.00000=T Traj:=T positionsangstrom=T Step:=T 0=T Bead:=T pbc="F F F"
C      -45.60530000     -36.48690000     -69.26440000
C      -45.95720000     -35.23950000     -68.63560000
C      -44.92680000     -34.36240000     -68.26670000
C      -43.64630000     -34.53800000     -68.65410000
C      -43.28050000     -35.72770000     -69.25420000
C      -44.23160000     -36.77870000     -69.38530000
H      -46.30310000     -37.25020000     -69.40810000
H      -45.24150000     -33.41880000     -67.80640000
H      -42.18460000     -35.83390000     -69.47290000
H      -43.97160000     -37.73250000     -69.76940000
C      -42.64270000     -33.44430000     -68.36250000
H      -41.97480000     -33.54270000     -67.47740000
H      -43.16850000     -32.58300000     -68.10520000
C      -47.36160000     -34.90120000     -68.26680000
H      -47.66440000     -35.62020000     -67.53320000
H      -47.48390000     -33.87250000     -67.94620000
S      -41.55780000     -33.09170000     -69.79760000
S      -48.51840000     -35.07570000     -69.63600000
C      -42.81010000     -32.47640000     -71.11680000
H      -43.33800000     -31.61530000     -70.76940000
H      -42.22680000     -32.07570000     -71.95990000
C      -47.67920000     -34.39780000     -71.14110000
H      -48.45370000     -34.48320000     -71.93080000
H      -46.88740000     -35.03850000     -71.49370000
C      -47.07560000     -32.98010000     -70.92570000
H      -47.77010000     -32.40300000     -70.29260000
H      -46.13800000     -32.93610000     -70.40190000
C      -43.81240000     -33.53870000     -71.76200000
H      -44.58550000     -33.82200000     -71.08790000
H      -43.21520000     -34.38090000     -72.02650000
C      -44.42420000     -32.87950000     -72.92610000
C      -43.71100000     -32.71770000     -74.14440000
C      -45.73820000     -32.29940000     -73.16000000
H      -42.70350000     -33.01770000     -74.22560000
C      -45.92470000     -31.58810000     -74.31420000
C      -46.94360000     -32.24740000     -72.30710000
C      -47.94790000     -31.46740000     -72.77340000
S      -44.51050000     -31.67760000     -75.32650000
S      -47.42190000     -30.66780000     -74.30830000
H      -48.97250000     -31.31610000     -72.39750000
