40
Properties=species:S:1:pos:R:3 #=T CELL(abcABC):=T 1.889726e+02=T 90.00000=T Traj:=T positionsangstrom=T Step:=T 0=T Bead:=T pbc="F F F"
C      -49.01290000     -31.93010000     -72.90040000
C      -48.10940000     -32.91620000     -73.29480000
C      -46.83010000     -32.45820000     -73.60600000
C      -46.40850000     -31.13560000     -73.48100000
C      -47.29180000     -30.20910000     -72.95150000
C      -48.62650000     -30.61090000     -72.70690000
H      -50.07720000     -32.34830000     -72.81880000
H      -46.08820000     -33.06480000     -74.10080000
H      -47.02900000     -29.15990000     -73.06460000
H      -49.42700000     -29.86260000     -72.44180000
C      -45.08020000     -30.60920000     -74.02960000
H      -44.82060000     -29.70160000     -73.35940000
H      -45.14880000     -30.20700000     -75.03580000
C      -48.57350000     -34.36330000     -73.54670000
H      -49.37510000     -34.74870000     -72.88880000
H      -48.95020000     -34.31810000     -74.55910000
S      -43.69120000     -31.88060000     -73.78680000
S      -47.26220000     -35.66330000     -73.65770000
C      -43.32350000     -31.69460000     -72.00940000
H      -42.73900000     -30.71950000     -71.94050000
H      -44.26520000     -31.54930000     -71.50320000
C      -46.63500000     -35.71410000     -71.91570000
H      -46.42880000     -36.78540000     -71.74820000
H      -47.49260000     -35.52430000     -71.21390000
C      -45.31060000     -34.91890000     -71.64550000
H      -44.50770000     -35.29450000     -72.18960000
H      -45.41180000     -33.90940000     -71.99620000
C      -42.66570000     -32.95030000     -71.48650000
H      -41.63290000     -32.99300000     -71.73540000
H      -43.09710000     -33.82140000     -71.98490000
C      -42.88020000     -33.22310000     -70.03130000
C      -42.17940000     -32.66640000     -69.00550000
C      -43.98140000     -34.11890000     -69.48150000
H      -41.30260000     -32.01960000     -68.93080000
C      -43.98750000     -34.18060000     -68.07940000
C      -44.94560000     -34.93980000     -70.12360000
C      -45.58060000     -35.75920000     -69.21340000
S      -42.73280000     -33.22320000     -67.38280000
S      -45.06310000     -35.44580000     -67.52270000
H      -46.38550000     -36.50330000     -69.39050000
