40
Properties=species:S:1:pos:R:3 #=T CELL(abcABC):=T 1.889726e+02=T 90.00000=T Traj:=T positionsangstrom=T Step:=T 0=T Bead:=T pbc="F F F"
C      -48.25080000     -32.19400000     -72.10540000
C      -47.76260000     -33.02300000     -73.17670000
C      -46.64790000     -32.49460000     -73.91770000
C      -46.16900000     -31.21060000     -73.64870000
C      -46.77970000     -30.36170000     -72.69630000
C      -47.75780000     -30.92230000     -71.92290000
H      -49.06650000     -32.62130000     -71.39990000
H      -46.16090000     -33.12020000     -74.66050000
H      -46.42000000     -29.36680000     -72.56690000
H      -48.24890000     -30.42990000     -71.09160000
C      -45.02490000     -30.62390000     -74.47660000
H      -44.93320000     -29.53750000     -74.54220000
H      -45.14700000     -31.03490000     -75.51680000
C      -48.37260000     -34.30340000     -73.73740000
H      -49.17550000     -34.67180000     -73.11050000
H      -48.75130000     -34.26790000     -74.79090000
S      -43.40810000     -31.46470000     -73.99030000
S      -47.11480000     -35.73080000     -73.71450000
C      -43.60600000     -31.74720000     -72.13880000
H      -43.33230000     -30.82190000     -71.58250000
H      -44.73810000     -31.79310000     -72.11890000
C      -46.70320000     -35.86790000     -71.91960000
H      -46.36010000     -36.93810000     -71.67490000
H      -47.64550000     -35.69660000     -71.40860000
C      -45.63070000     -34.90620000     -71.53170000
H      -44.66550000     -35.12120000     -72.00020000
H      -45.86610000     -33.89050000     -71.76430000
C      -42.88000000     -32.99830000     -71.54610000
H      -41.79780000     -32.89130000     -71.53540000
H      -43.01480000     -33.86190000     -72.14460000
C      -43.25880000     -33.29000000     -70.05430000
C      -42.50510000     -32.70410000     -69.04070000
C      -44.20650000     -34.15240000     -69.49900000
H      -41.72360000     -31.90350000     -69.17290000
C      -44.14170000     -34.28550000     -68.10660000
C      -45.32090000     -34.86360000     -70.06430000
C      -45.95950000     -35.65730000     -69.12700000
S      -42.92180000     -33.22150000     -67.43620000
S      -45.48410000     -35.28790000     -67.52540000
H      -46.71700000     -36.33500000     -69.28120000
