40
Properties=species:S:1:pos:R:3 #=T CELL(abcABC):=T 1.889726e+02=T 90.00000=T Traj:=T positionsangstrom=T Step:=T 0=T Bead:=T pbc="F F F"
C      -48.13020000     -32.57240000     -72.17450000
C      -47.75400000     -32.97380000     -73.52250000
C      -46.65530000     -32.38880000     -74.15510000
C      -45.98990000     -31.26380000     -73.53640000
C      -46.47140000     -30.77070000     -72.32350000
C      -47.51930000     -31.40260000     -71.61180000
H      -48.99930000     -33.05900000     -71.74550000
H      -46.29930000     -32.74470000     -75.11320000
H      -45.98370000     -29.92980000     -71.72930000
H      -47.90030000     -31.06770000     -70.65000000
C      -44.81200000     -30.63430000     -74.21610000
H      -44.74040000     -29.52850000     -73.97870000
H      -45.00100000     -30.62030000     -75.29620000
C      -48.43580000     -34.16460000     -74.17820000
H      -49.52720000     -34.32790000     -74.04070000
H      -48.35980000     -34.12180000     -75.26650000
S      -43.22800000     -31.39450000     -73.74110000
S      -47.47310000     -35.75810000     -73.77150000
C      -43.28690000     -31.62620000     -71.96830000
H      -42.58040000     -30.84680000     -71.50540000
H      -44.21180000     -31.30090000     -71.56700000
C      -46.94430000     -35.69260000     -72.02140000
H      -46.86440000     -36.75030000     -71.81170000
H      -47.78470000     -35.28620000     -71.43160000
C      -45.59940000     -35.08440000     -71.69050000
H      -44.70010000     -35.54330000     -72.10890000
H      -45.57320000     -34.04470000     -72.09500000
C      -42.89690000     -33.01820000     -71.52420000
H      -41.81140000     -33.18130000     -71.66360000
H      -43.44650000     -33.76700000     -72.19140000
C      -43.16410000     -33.29660000     -70.04760000
C      -42.54040000     -32.63630000     -69.02620000
C      -44.24230000     -34.16540000     -69.59520000
H      -41.77720000     -31.90280000     -69.21190000
C      -44.26080000     -34.17470000     -68.18820000
C      -45.32020000     -34.98930000     -70.18740000
C      -46.12280000     -35.50000000     -69.23660000
S      -43.01890000     -33.15880000     -67.39330000
S      -45.55490000     -35.12080000     -67.56260000
H      -47.10270000     -36.02910000     -69.36570000
