40
Properties=species:S:1:pos:R:3 #=T CELL(abcABC):=T 1.889726e+02=T 90.00000=T Traj:=T positionsangstrom=T Step:=T 0=T Bead:=T pbc="F F F"
C      -43.96460000     -30.80520000     -68.30460000
C      -43.43340000     -31.37450000     -69.46690000
C      -43.12190000     -32.71980000     -69.37690000
C      -43.40750000     -33.57620000     -68.29340000
C      -43.96810000     -32.99120000     -67.11560000
C      -44.27590000     -31.60990000     -67.19630000
H      -44.24150000     -29.70210000     -68.26740000
H      -42.66250000     -33.32970000     -70.18970000
H      -44.36920000     -33.51490000     -66.24390000
H      -44.91220000     -31.17120000     -66.35870000
C      -42.79170000     -34.97360000     -68.17350000
H      -43.33580000     -35.60380000     -67.42150000
H      -41.73910000     -34.81390000     -67.81220000
C      -43.01330000     -30.66930000     -70.68680000
H      -42.17220000     -29.96010000     -70.51010000
H      -42.68270000     -31.43950000     -71.40190000
S      -42.78300000     -35.90020000     -69.81800000
S      -44.34440000     -29.71260000     -71.43460000
C      -44.54360000     -35.70840000     -70.43630000
H      -44.94080000     -36.72620000     -70.59000000
H      -45.00720000     -35.28630000     -69.50150000
C      -45.47290000     -31.13010000     -71.77390000
H      -46.47260000     -30.70810000     -71.86570000
H      -45.51440000     -31.80650000     -70.85210000
C      -45.18180000     -31.88500000     -73.07710000
H      -45.01320000     -31.29030000     -73.92640000
H      -44.32690000     -32.60930000     -72.95800000
C      -44.78700000     -34.75160000     -71.56630000
H      -43.95440000     -34.55160000     -72.18490000
H      -44.89020000     -33.72980000     -71.09650000
C      -45.98560000     -35.07550000     -72.39560000
C      -46.49380000     -36.31010000     -72.61940000
C      -46.71960000     -34.04280000     -73.12990000
H      -46.11830000     -37.23210000     -72.09420000
C      -47.88130000     -34.56440000     -73.76340000
C      -46.49530000     -32.61440000     -73.38430000
C      -47.69470000     -32.07550000     -73.82910000
S      -48.04300000     -36.28370000     -73.40170000
S      -48.90010000     -33.32520000     -74.34060000
H      -47.79820000     -31.04310000     -74.01560000
