40
Properties=species:S:1:pos:R:3 #=T CELL(abcABC):=T 1.889726e+02=T 90.00000=T Traj:=T positionsangstrom=T Step:=T 0=T Bead:=T pbc="F F F"
C      -48.22500000     -32.17770000     -72.77260000
C      -47.40550000     -32.60410000     -73.83470000
C      -46.21920000     -31.89750000     -74.06270000
C      -45.72990000     -30.87420000     -73.21270000
C      -46.48290000     -30.54580000     -72.04250000
C      -47.69440000     -31.24520000     -71.80240000
H      -49.07060000     -32.86150000     -72.52310000
H      -45.79870000     -32.11450000     -75.01330000
H      -46.01390000     -29.77500000     -71.38640000
H      -48.29150000     -31.00640000     -70.94070000
C      -44.49720000     -30.10120000     -73.51400000
H      -44.44230000     -29.28320000     -72.79850000
H      -44.41770000     -29.71820000     -74.53450000
C      -47.89300000     -33.83960000     -74.56700000
H      -48.98190000     -34.00180000     -74.29610000
H      -47.83170000     -33.86790000     -75.67220000
S      -42.89740000     -31.06650000     -73.32540000
S      -46.97280000     -35.45270000     -74.18700000
C      -43.22970000     -31.75310000     -71.62710000
H      -42.47680000     -31.25990000     -70.93510000
H      -44.24890000     -31.62500000     -71.29580000
C      -47.06190000     -35.65660000     -72.38720000
H      -47.00900000     -36.67750000     -72.04980000
H      -48.05110000     -35.41630000     -72.00990000
C      -45.85540000     -34.84100000     -71.75600000
H      -44.90890000     -35.03560000     -72.29840000
H      -46.05300000     -33.72890000     -71.98970000
C      -42.87250000     -33.28120000     -71.38180000
H      -41.73660000     -33.37360000     -71.44360000
H      -43.35120000     -33.93610000     -72.20620000
C      -43.27670000     -33.71690000     -69.96800000
C      -42.58060000     -33.30120000     -68.83070000
C      -44.51960000     -34.43520000     -69.59210000
H      -41.65590000     -32.71270000     -68.82920000
C      -44.61260000     -34.60760000     -68.24920000
C      -45.67720000     -34.94190000     -70.27650000
C      -46.60560000     -35.48300000     -69.34060000
S      -43.27740000     -33.92320000     -67.30400000
S      -46.04070000     -35.43840000     -67.67880000
H      -47.58870000     -35.91700000     -69.53030000
