40
Properties=species:S:1:pos:R:3 #=T CELL(abcABC):=T 1.889726e+02=T 90.00000=T Traj:=T positionsangstrom=T Step:=T 0=T Bead:=T pbc="F F F"
C      -48.28000000     -32.23010000     -72.57560000
C      -47.53820000     -32.36410000     -73.78740000
C      -46.36140000     -31.61920000     -73.86630000
C      -45.96210000     -30.78000000     -72.85560000
C      -46.75080000     -30.57880000     -71.67230000
C      -47.91500000     -31.28830000     -71.61640000
H      -49.19430000     -32.80420000     -72.43140000
H      -45.72670000     -31.89750000     -74.70710000
H      -46.43910000     -29.87720000     -70.82900000
H      -48.66440000     -31.23430000     -70.79270000
C      -44.64560000     -30.07320000     -72.86150000
H      -44.54660000     -29.43870000     -71.95800000
H      -44.56120000     -29.41290000     -73.73300000
C      -47.80720000     -33.40660000     -74.86090000
H      -48.81350000     -33.74460000     -74.70730000
H      -47.68270000     -33.03840000     -75.91090000
S      -43.20610000     -31.28600000     -72.98920000
S      -46.60780000     -34.82500000     -74.75140000
C      -43.14490000     -31.81830000     -71.19820000
H      -42.56730000     -31.15200000     -70.63530000
H      -44.18020000     -31.73350000     -70.70230000
C      -46.65710000     -35.22880000     -72.89720000
H      -46.47010000     -36.31440000     -72.74820000
H      -47.59230000     -34.88230000     -72.60680000
C      -45.57650000     -34.46690000     -72.04040000
H      -44.59900000     -34.52990000     -72.49320000
H      -45.82660000     -33.40350000     -72.17640000
C      -42.66080000     -33.29470000     -71.06010000
H      -41.59530000     -33.36150000     -71.03150000
H      -43.00960000     -33.82690000     -71.93770000
C      -43.13740000     -33.87180000     -69.75250000
C      -42.46420000     -33.80630000     -68.57330000
C      -44.47470000     -34.47910000     -69.61990000
H      -41.50090000     -33.36140000     -68.50910000
C      -44.66780000     -34.82380000     -68.30390000
C      -45.52070000     -34.88850000     -70.51540000
C      -46.57340000     -35.55440000     -69.77400000
S      -43.40580000     -34.31910000     -67.21780000
S      -46.13080000     -35.79210000     -68.10460000
H      -47.38520000     -36.14290000     -70.30550000
