40
Properties=species:S:1:pos:R:3 #=T CELL(abcABC):=T 1.889726e+02=T 90.00000=T Traj:=T positionsangstrom=T Step:=T 0=T Bead:=T pbc="F F F"
C      -48.21380000     -32.27780000     -72.48580000
C      -47.41010000     -32.76040000     -73.54040000
C      -46.19040000     -32.18840000     -74.00650000
C      -45.80190000     -31.00450000     -73.32740000
C      -46.50310000     -30.52130000     -72.17120000
C      -47.77000000     -31.09600000     -71.82680000
H      -49.08490000     -32.86420000     -72.12250000
H      -45.74060000     -32.56650000     -74.91980000
H      -46.03600000     -29.56380000     -71.75560000
H      -48.30090000     -30.66230000     -70.95390000
C      -44.50570000     -30.26840000     -73.74050000
H      -44.37940000     -29.34730000     -73.13190000
H      -44.64870000     -29.97630000     -74.74350000
C      -47.97300000     -33.98520000     -74.39170000
H      -49.02890000     -34.05040000     -74.12190000
H      -47.86420000     -33.82320000     -75.44170000
S      -42.94760000     -31.34850000     -73.63760000
S      -46.97900000     -35.57520000     -74.05190000
C      -42.86980000     -31.63510000     -71.76430000
H      -41.83810000     -31.28260000     -71.54320000
H      -43.63330000     -31.12540000     -71.27360000
C      -47.14510000     -35.63110000     -72.18930000
H      -47.44780000     -36.60120000     -71.86830000
H      -48.04910000     -35.05710000     -71.90670000
C      -45.84780000     -35.03090000     -71.63070000
H      -44.97930000     -35.56700000     -71.98500000
H      -45.81230000     -33.98220000     -72.10640000
C      -43.10810000     -33.12310000     -71.48570000
H      -42.16220000     -33.66120000     -71.81650000
H      -43.84170000     -33.50160000     -72.19620000
C      -43.46700000     -33.41450000     -70.04720000
C      -42.59920000     -33.09010000     -68.96190000
C      -44.51100000     -34.25780000     -69.54710000
H      -41.72270000     -32.43970000     -69.07530000
C      -44.58060000     -34.44070000     -68.16070000
C      -45.71940000     -34.86080000     -70.19350000
C      -46.49360000     -35.57300000     -69.26960000
S      -43.17060000     -33.64850000     -67.34970000
S      -45.98930000     -35.36600000     -67.61490000
H      -47.36930000     -36.13070000     -69.42540000
