40
Properties=species:S:1:pos:R:3 #=T CELL(abcABC):=T 1.889726e+02=T 90.00000=T Traj:=T positionsangstrom=T Step:=T 0=T Bead:=T pbc="F F F"
C      -47.02490000     -30.39060000     -68.85430000
C      -47.22690000     -30.47380000     -70.26500000
C      -46.13380000     -30.57830000     -71.18250000
C      -44.89890000     -30.31980000     -70.58210000
C      -44.70890000     -30.13360000     -69.22680000
C      -45.75960000     -30.21860000     -68.33500000
H      -48.01020000     -30.47790000     -68.24950000
H      -46.36320000     -30.83330000     -72.23980000
H      -43.67280000     -30.00730000     -68.86300000
H      -45.49070000     -29.91640000     -67.35300000
C      -43.64410000     -30.14730000     -71.42300000
H      -43.36310000     -29.14280000     -71.12890000
H      -43.87660000     -30.23100000     -72.47340000
C      -48.58770000     -30.67690000     -70.84050000
H      -49.37950000     -30.20880000     -70.31960000
H      -48.66330000     -30.42750000     -71.91170000
S      -42.20360000     -31.21590000     -70.98140000
S      -48.98340000     -32.43630000     -70.75780000
C      -42.65080000     -32.95090000     -71.47300000
H      -41.66810000     -33.38670000     -71.53970000
H      -43.13040000     -33.42210000     -70.57950000
C      -47.51020000     -33.41710000     -71.49810000
H      -47.11210000     -32.87570000     -72.31980000
H      -47.92340000     -34.30500000     -72.00500000
C      -46.48260000     -33.87580000     -70.48640000
H      -45.72290000     -33.09610000     -70.49860000
H      -46.89650000     -33.91370000     -69.43910000
C      -43.49980000     -33.14320000     -72.73870000
H      -42.90620000     -32.83770000     -73.54880000
H      -44.27670000     -32.46420000     -72.79370000
C      -43.86090000     -34.62210000     -72.85340000
C      -43.12420000     -35.34940000     -73.73100000
C      -44.87630000     -35.38370000     -72.04000000
H      -42.38240000     -35.05570000     -74.40170000
C      -44.72720000     -36.69210000     -72.40530000
C      -45.82170000     -35.11980000     -70.96880000
C      -46.37220000     -36.29740000     -70.49460000
S      -43.61830000     -36.98750000     -73.69920000
S      -45.83760000     -37.72290000     -71.38060000
H      -46.85840000     -36.44250000     -69.54380000
