40
Properties=species:S:1:pos:R:3 #=T CELL(abcABC):=T 1.889726e+02=T 90.00000=T Traj:=T positionsangstrom=T Step:=T 0=T Bead:=T pbc="F F F"
C      -45.59010000     -37.38000000     -70.67990000
C      -46.54870000     -36.62210000     -71.39570000
C      -47.51690000     -35.81070000     -70.81680000
C      -47.41310000     -35.64820000     -69.40830000
C      -46.48170000     -36.41150000     -68.67710000
C      -45.54410000     -37.26290000     -69.28220000
H      -44.81240000     -37.94960000     -71.22400000
H      -48.20000000     -35.12750000     -71.32350000
H      -46.39850000     -36.17850000     -67.58780000
H      -44.89190000     -37.96690000     -68.73100000
C      -48.29250000     -34.74620000     -68.56280000
H      -47.93190000     -34.55620000     -67.52460000
H      -49.24280000     -35.23550000     -68.54330000
C      -46.46170000     -36.71730000     -72.98370000
H      -46.46520000     -37.79650000     -73.25660000
H      -47.32140000     -36.23310000     -73.43490000
S      -48.62260000     -33.15210000     -69.30910000
S      -44.78060000     -36.21290000     -73.77190000
C      -47.01260000     -32.27120000     -69.39290000
H      -47.15520000     -31.19620000     -69.49660000
H      -46.63820000     -32.36340000     -68.39060000
C      -44.18310000     -34.63710000     -73.04140000
H      -43.10810000     -34.59810000     -73.12200000
H      -44.46050000     -34.64730000     -71.95200000
C      -44.87570000     -33.36530000     -73.62620000
H      -44.87530000     -33.45070000     -74.70580000
H      -45.92310000     -33.25220000     -73.38260000
C      -46.00700000     -32.64560000     -70.51740000
H      -46.48910000     -32.55120000     -71.48100000
H      -45.71510000     -33.67590000     -70.32050000
C      -44.95360000     -31.60110000     -70.68310000
C      -44.57070000     -30.65510000     -69.74120000
C      -44.13320000     -31.52640000     -71.87740000
H      -45.10220000     -30.36340000     -68.82630000
C      -43.23940000     -30.42410000     -71.80340000
C      -44.14140000     -32.08210000     -73.20840000
C      -43.30460000     -31.42100000     -74.07140000
S      -43.29630000     -29.58690000     -70.34220000
S      -42.36660000     -30.13560000     -73.28100000
H      -43.09880000     -31.52540000     -75.13320000
