40
Properties=species:S:1:pos:R:3 #=T CELL(abcABC):=T 1.889726e+02=T 90.00000=T Traj:=T positionsangstrom=T Step:=T 0=T Bead:=T pbc="F F F"
C      -46.82120000     -30.32270000     -68.82170000
C      -47.09260000     -30.39260000     -70.22290000
C      -45.96590000     -30.14890000     -71.10600000
C      -44.65630000     -30.21150000     -70.55280000
C      -44.45160000     -30.25730000     -69.19000000
C      -45.52850000     -30.25180000     -68.29590000
H      -47.72710000     -30.48850000     -68.19600000
H      -46.14240000     -30.21150000     -72.14330000
H      -43.48620000     -30.35660000     -68.70060000
H      -45.41960000     -30.52930000     -67.27790000
C      -43.53890000     -30.24280000     -71.51820000
H      -43.06950000     -29.24680000     -71.59670000
H      -43.97400000     -30.47160000     -72.54470000
C      -48.44680000     -30.64230000     -70.73180000
H      -49.22840000     -29.96070000     -70.26720000
H      -48.46860000     -30.50340000     -71.84750000
S      -42.07580000     -31.30410000     -71.11260000
S      -49.12570000     -32.44440000     -70.44600000
C      -42.90970000     -32.95070000     -71.15440000
H      -42.20610000     -33.75810000     -70.94110000
H      -43.63430000     -33.00420000     -70.30370000
C      -47.83220000     -33.33090000     -71.46530000
H      -47.61140000     -32.70240000     -72.32740000
H      -48.33500000     -34.33340000     -71.64130000
C      -46.44080000     -33.79200000     -70.70770000
H      -45.62080000     -33.13420000     -70.89230000
H      -46.49930000     -33.80200000     -69.60070000
C      -43.65280000     -33.17900000     -72.50350000
H      -43.13600000     -32.79420000     -73.40780000
H      -44.57020000     -32.56820000     -72.33810000
C      -43.90080000     -34.62500000     -72.89970000
C      -43.13970000     -35.38060000     -73.75250000
C      -44.98240000     -35.35300000     -72.26990000
H      -42.36580000     -35.17460000     -74.49370000
C      -44.77850000     -36.72140000     -72.42390000
C      -46.03060000     -35.10530000     -71.24920000
C      -46.55570000     -36.30290000     -70.78410000
S      -43.61010000     -37.06240000     -73.63900000
S      -45.86850000     -37.75850000     -71.54960000
H      -47.22960000     -36.33510000     -69.98070000
