40
Properties=species:S:1:pos:R:3 #=T CELL(abcABC):=T 1.889726e+02=T 90.00000=T Traj:=T positionsangstrom=T Step:=T 0=T Bead:=T pbc="F F F"
C      -48.28920000     -31.98690000     -73.03520000
C      -47.28050000     -32.39600000     -73.88620000
C      -46.00580000     -31.75640000     -73.78820000
C      -45.73000000     -30.74770000     -72.86330000
C      -46.72790000     -30.42560000     -71.95090000
C      -48.00690000     -30.98860000     -72.08010000
H      -49.29020000     -32.46650000     -72.98420000
H      -45.21290000     -32.04960000     -74.47830000
H      -46.54870000     -29.74420000     -71.17140000
H      -48.75990000     -30.65940000     -71.34760000
C      -44.50000000     -29.92760000     -73.02050000
H      -44.45330000     -28.90350000     -72.64400000
H      -44.12910000     -30.00860000     -74.07450000
C      -47.47060000     -33.43530000     -74.96410000
H      -48.51540000     -33.84470000     -75.00080000
H      -47.36650000     -32.96620000     -75.95070000
S      -42.90160000     -30.59630000     -72.27760000
S      -46.08200000     -34.77100000     -74.89450000
C      -43.53740000     -31.43580000     -70.74720000
H      -43.42700000     -30.67920000     -69.93370000
H      -44.57050000     -31.69400000     -70.96180000
C      -46.16190000     -35.38310000     -73.12550000
H      -45.85590000     -36.42910000     -73.18420000
H      -47.25140000     -35.46260000     -72.91120000
C      -45.35210000     -34.55150000     -72.12830000
H      -44.27740000     -34.59700000     -72.37970000
H      -45.58310000     -33.44080000     -72.13220000
C      -42.88120000     -32.80370000     -70.42020000
H      -41.82610000     -32.55740000     -70.05010000
H      -42.91090000     -33.40650000     -71.31350000
C      -43.62550000     -33.57050000     -69.39260000
C      -43.18740000     -33.64530000     -68.07900000
C      -44.68150000     -34.57120000     -69.62290000
H      -42.27370000     -33.19360000     -67.65240000
C      -45.02530000     -35.22620000     -68.46380000
C      -45.53420000     -35.02610000     -70.71050000
C      -46.49500000     -35.98490000     -70.26430000
S      -43.98900000     -34.79150000     -67.07740000
S      -46.27740000     -36.37300000     -68.52010000
H      -47.07330000     -36.66430000     -70.89810000
