40
Properties=species:S:1:pos:R:3 #=T CELL(abcABC):=T 1.889726e+02=T 90.00000=T Traj:=T positionsangstrom=T Step:=T 0=T Bead:=T pbc="F F F"
C      -48.43360000     -31.88200000     -73.21010000
C      -47.32220000     -32.28810000     -73.96770000
C      -45.99270000     -31.81170000     -73.73500000
C      -45.88570000     -30.70260000     -72.86410000
C      -47.00720000     -30.29800000     -72.09780000
C      -48.23790000     -30.91900000     -72.26450000
H      -49.37280000     -32.40690000     -73.35900000
H      -45.13710000     -32.03570000     -74.40310000
H      -46.83230000     -29.51520000     -71.34430000
H      -49.03140000     -30.64300000     -71.54850000
C      -44.60380000     -29.89850000     -72.91040000
H      -44.61560000     -29.08890000     -72.18780000
H      -44.39360000     -29.48780000     -73.87950000
C      -47.55550000     -33.41510000     -74.93140000
H      -48.57630000     -33.71720000     -74.87450000
H      -47.33000000     -33.12090000     -75.94970000
S      -43.03540000     -30.79120000     -72.56720000
S      -46.44890000     -34.90770000     -74.66030000
C      -43.50130000     -31.75390000     -71.10750000
H      -43.36130000     -31.07090000     -70.23990000
H      -44.62660000     -31.84430000     -71.10400000
C      -46.42170000     -35.16330000     -72.85620000
H      -46.52870000     -36.26710000     -72.63230000
H      -47.38040000     -34.77510000     -72.46860000
C      -45.27010000     -34.64940000     -72.04530000
H      -44.31400000     -35.06940000     -72.40460000
H      -45.18260000     -33.55320000     -72.18660000
C      -42.74610000     -33.11220000     -70.74760000
H      -41.70160000     -32.86430000     -70.54010000
H      -42.72730000     -33.79090000     -71.63160000
C      -43.26160000     -33.78420000     -69.51070000
C      -42.72870000     -33.76780000     -68.31190000
C      -44.46310000     -34.60350000     -69.56390000
H      -41.90730000     -33.19770000     -67.94470000
C      -44.79270000     -35.11300000     -68.29680000
C      -45.42560000     -35.00200000     -70.58160000
C      -46.45280000     -35.83040000     -70.11450000
S      -43.62780000     -34.69900000     -67.07470000
S      -46.25670000     -36.07790000     -68.25050000
H      -47.18050000     -36.53000000     -70.42700000
