40
Properties=species:S:1:pos:R:3 #=T CELL(abcABC):=T 1.889726e+02=T 90.00000=T Traj:=T positionsangstrom=T Step:=T 0=T Bead:=T pbc="F F F"
C      -48.23360000     -32.03340000     -73.05550000
C      -47.28070000     -32.37790000     -74.03840000
C      -46.10270000     -31.64910000     -74.11930000
C      -45.81220000     -30.64420000     -73.15370000
C      -46.76830000     -30.35720000     -72.16860000
C      -47.91450000     -31.16070000     -72.04610000
H      -49.16990000     -32.53440000     -73.04280000
H      -45.37380000     -31.87120000     -74.88470000
H      -46.58130000     -29.56390000     -71.45550000
H      -48.63490000     -30.88540000     -71.26590000
C      -44.51380000     -29.83840000     -73.00790000
H      -44.93430000     -28.94090000     -72.58370000
H      -44.13880000     -29.47510000     -73.93810000
C      -47.55520000     -33.58490000     -74.91380000
H      -48.44230000     -34.05840000     -74.53570000
H      -47.71780000     -33.43450000     -75.97690000
S      -43.07360000     -30.64500000     -72.18250000
S      -46.12620000     -34.80940000     -74.82660000
C      -43.63230000     -31.57640000     -70.58040000
H      -43.35490000     -30.99000000     -69.73900000
H      -44.70250000     -31.65140000     -70.41800000
C      -46.26570000     -35.42080000     -73.10080000
H      -45.84340000     -36.44000000     -73.10010000
H      -47.32670000     -35.49930000     -72.84260000
C      -45.53850000     -34.49930000     -72.05550000
H      -44.59020000     -34.17730000     -72.44050000
H      -46.08060000     -33.60000000     -72.02480000
C      -42.92170000     -32.84680000     -70.52110000
H      -41.83700000     -32.75580000     -70.41790000
H      -42.99640000     -33.36930000     -71.49440000
C      -43.42040000     -33.74190000     -69.45190000
C      -42.98310000     -33.59090000     -68.15880000
C      -44.60200000     -34.56890000     -69.57020000
H      -42.13910000     -32.96280000     -67.84680000
C      -44.87930000     -35.20030000     -68.39760000
C      -45.39380000     -35.09550000     -70.69830000
C      -46.34670000     -36.03890000     -70.24150000
S      -43.90900000     -34.60210000     -67.05950000
S      -46.20940000     -36.34000000     -68.43760000
H      -47.20240000     -36.53780000     -70.66240000
