40
Properties=species:S:1:pos:R:3 #=T CELL(abcABC):=T 1.889726e+02=T 90.00000=T Traj:=T positionsangstrom=T Step:=T 0=T Bead:=T pbc="F F F"
C      -48.30400000     -32.02290000     -73.13460000
C      -47.23060000     -32.38600000     -73.97540000
C      -46.05020000     -31.66880000     -74.03580000
C      -45.84600000     -30.62380000     -73.03730000
C      -46.94400000     -30.23800000     -72.21870000
C      -48.15500000     -30.96700000     -72.27840000
H      -49.22400000     -32.57460000     -73.12460000
H      -45.18430000     -32.11150000     -74.56690000
H      -46.75960000     -29.43170000     -71.49030000
H      -48.97320000     -30.67390000     -71.60350000
C      -44.50280000     -29.88770000     -72.91390000
H      -44.68700000     -29.02040000     -72.21600000
H      -44.31900000     -29.41990000     -73.86150000
C      -47.42490000     -33.54150000     -74.90340000
H      -48.51280000     -33.86210000     -74.67430000
H      -47.29170000     -33.31950000     -75.96440000
S      -43.00930000     -30.84610000     -72.45360000
S      -46.24750000     -34.91060000     -74.67480000
C      -43.60610000     -31.62650000     -70.83050000
H      -43.42270000     -30.94030000     -69.99900000
H      -44.54740000     -31.99460000     -71.00610000
C      -46.65640000     -35.29210000     -72.93470000
H      -46.57570000     -36.34470000     -72.80120000
H      -47.65390000     -35.01660000     -72.72660000
C      -45.74030000     -34.55850000     -72.02860000
H      -44.71630000     -34.65760000     -72.44340000
H      -45.96300000     -33.52790000     -72.02980000
C      -42.77560000     -32.98000000     -70.70820000
H      -41.72980000     -32.95120000     -70.45800000
H      -42.87570000     -33.54780000     -71.65820000
C      -43.35400000     -33.72260000     -69.56260000
C      -42.85410000     -33.59140000     -68.33690000
C      -44.57130000     -34.58550000     -69.59130000
H      -41.90680000     -33.11360000     -68.02690000
C      -44.77540000     -35.12160000     -68.30110000
C      -45.63150000     -35.06140000     -70.55710000
C      -46.47490000     -35.94180000     -69.93790000
S      -43.63300000     -34.52730000     -67.11110000
S      -46.12960000     -36.26560000     -68.25530000
H      -47.50350000     -36.23460000     -70.29230000
