40
Properties=species:S:1:pos:R:3 #=T CELL(abcABC):=T 1.889726e+02=T 90.00000=T Traj:=T positionsangstrom=T Step:=T 0=T Bead:=T pbc="F F F"
C      -47.98450000     -31.94660000     -72.71790000
C      -47.01580000     -32.16460000     -73.79380000
C      -45.91710000     -31.27990000     -73.90270000
C      -45.68370000     -30.30370000     -72.94030000
C      -46.62110000     -30.13280000     -71.89680000
C      -47.75400000     -30.88660000     -71.83470000
H      -48.85010000     -32.60510000     -72.58360000
H      -45.24810000     -31.18000000     -74.74430000
H      -46.54030000     -29.31200000     -71.11430000
H      -48.50180000     -30.79870000     -71.09590000
C      -44.31840000     -29.65800000     -72.87790000
H      -44.41410000     -28.77860000     -72.16770000
H      -44.12000000     -29.19120000     -73.82340000
C      -47.38310000     -33.17730000     -74.84100000
H      -48.33570000     -33.57760000     -74.60240000
H      -47.30910000     -32.79070000     -75.89580000
S      -43.10260000     -30.90060000     -72.26720000
S      -46.11360000     -34.66910000     -74.89130000
C      -43.72100000     -31.85330000     -70.81600000
H      -43.94490000     -31.33360000     -69.89110000
H      -44.75540000     -32.31340000     -70.94690000
C      -46.16980000     -35.50250000     -73.17100000
H      -46.00960000     -36.59610000     -73.37430000
H      -47.18440000     -35.32620000     -72.76180000
C      -45.09940000     -34.93400000     -72.25050000
H      -44.07810000     -35.08920000     -72.66440000
H      -45.19070000     -33.83230000     -72.29860000
C      -42.75100000     -33.02480000     -70.48000000
H      -41.83900000     -32.65580000     -70.08880000
H      -42.43610000     -33.49930000     -71.41820000
C      -43.51460000     -33.86120000     -69.42280000
C      -43.31550000     -33.63640000     -68.07820000
C      -44.62100000     -34.76730000     -69.65750000
H      -42.76280000     -32.87150000     -67.54390000
C      -45.12150000     -35.22290000     -68.43510000
C      -45.26740000     -35.39250000     -70.80120000
C      -46.31880000     -36.17550000     -70.44570000
S      -44.31510000     -34.63230000     -66.98380000
S      -46.46020000     -36.32860000     -68.71970000
H      -47.03430000     -36.37200000     -71.25090000
