40
Properties=species:S:1:pos:R:3 #=T CELL(abcABC):=T 1.889726e+02=T 90.00000=T Traj:=T positionsangstrom=T Step:=T 0=T Bead:=T pbc="F F F"
C      -43.36400000     -32.07260000     -70.96400000
C      -42.77020000     -33.34190000     -70.60360000
C      -43.27610000     -34.08870000     -69.51720000
C      -44.26940000     -33.57300000     -68.69260000
C      -44.88310000     -32.34010000     -69.08310000
C      -44.36420000     -31.58020000     -70.18440000
H      -42.95700000     -31.50390000     -71.81090000
H      -42.77830000     -35.01950000     -69.41360000
H      -45.59270000     -31.84880000     -68.42370000
H      -44.89990000     -30.66600000     -70.39700000
C      -44.89000000     -34.20090000     -67.55700000
H      -44.76640000     -33.54450000     -66.74980000
H      -44.45330000     -35.23620000     -67.21770000
C      -41.61850000     -33.94310000     -71.38460000
H      -40.71370000     -33.36620000     -71.33470000
H      -41.35930000     -34.86870000     -70.98330000
S      -46.76790000     -34.31020000     -67.57170000
S      -41.93490000     -34.00980000     -73.17760000
C      -47.41040000     -35.18550000     -69.01230000
H      -47.27880000     -36.29500000     -68.89350000
H      -48.59100000     -35.02330000     -69.11230000
C      -43.24850000     -35.28340000     -73.48890000
H      -42.89390000     -36.25790000     -73.22760000
H      -43.54150000     -35.20280000     -74.52220000
C      -44.52590000     -35.05320000     -72.56680000
H      -45.18060000     -35.92940000     -72.62220000
H      -44.24140000     -35.02080000     -71.49950000
C      -46.87600000     -34.90510000     -70.43120000
H      -47.00190000     -35.74560000     -71.24990000
H      -45.78900000     -34.83880000     -70.43360000
C      -47.18370000     -33.61190000     -71.17430000
C      -48.27070000     -32.79580000     -70.91070000
C      -46.49010000     -33.26900000     -72.34670000
H      -49.04590000     -32.80830000     -70.17170000
C      -47.11680000     -32.24730000     -73.08160000
C      -45.34260000     -33.81270000     -72.99750000
C      -45.02510000     -33.13010000     -74.13720000
S      -48.38320000     -31.51420000     -72.18840000
S      -46.18620000     -31.86650000     -74.55370000
H      -44.28160000     -33.31040000     -74.82180000
