40
Properties=species:S:1:pos:R:3 #=T CELL(abcABC):=T 1.889726e+02=T 90.00000=T Traj:=T positionsangstrom=T Step:=T 0=T Bead:=T pbc="F F F"
C      -47.90490000     -31.37300000     -74.18740000
C      -46.68080000     -32.03920000     -74.43030000
C      -45.53050000     -31.56860000     -73.81720000
C      -45.44930000     -30.35240000     -73.18960000
C      -46.62600000     -29.57850000     -73.10900000
C      -47.86050000     -30.15560000     -73.51300000
H      -48.79300000     -31.72010000     -74.71330000
H      -44.66040000     -32.06690000     -74.07390000
H      -46.72560000     -28.58860000     -72.58060000
H      -48.76370000     -29.57130000     -73.43180000
C      -44.10380000     -29.83260000     -72.64020000
H      -44.28760000     -29.18750000     -71.77250000
H      -43.52100000     -29.34650000     -73.40780000
C      -46.61870000     -33.34590000     -75.26820000
H      -47.64910000     -33.78170000     -75.32480000
H      -46.47640000     -33.06500000     -76.33290000
S      -42.97290000     -31.15670000     -72.04460000
S      -45.35480000     -34.51390000     -74.62570000
C      -44.01000000     -32.21240000     -70.90400000
H      -44.57490000     -31.58690000     -70.19220000
H      -44.69740000     -32.72880000     -71.49480000
C      -45.91200000     -34.68780000     -72.79230000
H      -46.90330000     -35.10790000     -72.81230000
H      -46.04210000     -33.62390000     -72.43740000
C      -45.00290000     -35.57320000     -71.93580000
H      -45.06880000     -36.58550000     -72.38540000
H      -43.95990000     -35.36720000     -71.98730000
C      -43.14440000     -33.10410000     -70.18320000
H      -42.32130000     -32.57630000     -69.68260000
H      -42.61820000     -33.77530000     -70.92220000
C      -43.94060000     -33.84520000     -69.14910000
C      -43.79780000     -33.54720000     -67.78110000
C      -44.93120000     -34.92770000     -69.37390000
H      -43.21280000     -32.66460000     -67.43830000
C      -45.47730000     -35.32210000     -68.10170000
C      -45.47360000     -35.66110000     -70.46430000
C      -46.44690000     -36.54810000     -70.07230000
S      -44.88330000     -34.45240000     -66.76350000
S      -46.69500000     -36.48580000     -68.36780000
H      -47.02290000     -37.21290000     -70.62990000
