40
Properties=species:S:1:pos:R:3 #=T CELL(abcABC):=T 1.889726e+02=T 90.00000=T Traj:=T positionsangstrom=T Step:=T 0=T Bead:=T pbc="F F F"
C      -43.27430000     -36.48460000     -70.60670000
C      -44.43170000     -36.42920000     -69.83440000
C      -45.71810000     -36.31420000     -70.45340000
C      -45.82270000     -36.47460000     -71.86160000
C      -44.64410000     -36.56530000     -72.60440000
C      -43.37700000     -36.55300000     -71.99940000
H      -42.25940000     -36.35350000     -70.18610000
H      -46.71790000     -36.31900000     -69.89970000
H      -44.82800000     -36.45650000     -73.74160000
H      -42.51710000     -36.45910000     -72.55510000
C      -47.16170000     -36.46610000     -72.58690000
H      -47.98630000     -36.75550000     -71.96710000
H      -47.14280000     -37.28620000     -73.37690000
C      -44.25420000     -36.14000000     -68.35480000
H      -44.73420000     -36.94410000     -67.85170000
H      -43.19040000     -36.25580000     -68.15700000
S      -47.60030000     -35.01090000     -73.53550000
S      -45.07400000     -34.59140000     -67.88340000
C      -48.20700000     -33.85160000     -72.32240000
H      -48.72660000     -33.12990000     -72.99010000
H      -48.97740000     -34.25230000     -71.75800000
C      -44.53070000     -33.38470000     -69.18480000
H      -44.65220000     -33.89960000     -70.18110000
H      -43.41910000     -33.16190000     -69.00630000
C      -45.33790000     -32.08710000     -68.99740000
H      -46.36640000     -32.32820000     -69.00070000
H      -45.20020000     -31.73380000     -67.99180000
C      -47.01570000     -33.10000000     -71.68190000
H      -46.50180000     -33.92390000     -71.21820000
H      -47.51270000     -32.54370000     -70.90120000
C      -46.11820000     -32.13020000     -72.36560000
C      -46.07750000     -31.77990000     -73.67750000
C      -45.29970000     -31.27530000     -71.52800000
H      -46.58880000     -32.20610000     -74.44240000
C      -44.60450000     -30.32280000     -72.28600000
C      -45.00510000     -31.11610000     -70.07540000
C      -44.07690000     -30.15520000     -69.83890000
S      -45.02930000     -30.42110000     -73.93920000
S      -43.55800000     -29.25210000     -71.30130000
H      -43.96930000     -29.80440000     -68.79720000
