40
Properties=species:S:1:pos:R:3 #=T CELL(abcABC):=T 1.889726e+02=T 90.00000=T Traj:=T positionsangstrom=T Step:=T 0=T Bead:=T pbc="F F F"
C      -47.79490000     -31.09500000     -74.55600000
C      -46.67560000     -31.89170000     -74.56860000
C      -45.56980000     -31.43510000     -73.89170000
C      -45.42150000     -30.27420000     -73.11470000
C      -46.63410000     -29.56030000     -73.06500000
C      -47.75290000     -29.94400000     -73.77080000
H      -48.75840000     -31.45270000     -75.02930000
H      -44.68720000     -32.09650000     -73.90930000
H      -46.73710000     -28.69440000     -72.48890000
H      -48.54650000     -29.15400000     -73.88420000
C      -44.14280000     -29.78490000     -72.43780000
H      -44.44870000     -29.12530000     -71.58650000
H      -43.65760000     -29.15850000     -73.22990000
C      -46.77320000     -33.20420000     -75.28700000
H      -47.85600000     -33.40570000     -75.53960000
H      -46.32110000     -33.00630000     -76.31610000
S      -42.99470000     -31.01500000     -71.92780000
S      -45.89620000     -34.69610000     -74.64860000
C      -43.87620000     -31.82090000     -70.40740000
H      -43.74710000     -31.17260000     -69.54940000
H      -44.96510000     -31.92790000     -70.71180000
C      -46.16190000     -34.63800000     -72.76900000
H      -47.19210000     -35.04570000     -72.59000000
H      -46.35060000     -33.54550000     -72.55370000
C      -45.08680000     -35.37610000     -71.97110000
H      -44.96020000     -36.36220000     -72.46710000
H      -44.12900000     -34.86320000     -71.92640000
C      -43.07260000     -33.17000000     -70.11250000
H      -42.07040000     -32.90460000     -69.70990000
H      -42.90050000     -33.75890000     -71.05450000
C      -43.74220000     -34.05560000     -69.12390000
C      -43.57430000     -33.79400000     -67.79220000
C      -44.76650000     -35.03790000     -69.37380000
H      -42.89660000     -33.09390000     -67.36920000
C      -45.35060000     -35.47970000     -68.16440000
C      -45.49290000     -35.51360000     -70.53580000
C      -46.50220000     -36.38930000     -70.18910000
S      -44.59960000     -34.72300000     -66.76430000
S      -46.61210000     -36.71440000     -68.40640000
H      -47.02570000     -37.04220000     -70.84220000
