40
Properties=species:S:1:pos:R:3 #=T CELL(abcABC):=T 1.889726e+02=T 90.00000=T Traj:=T positionsangstrom=T Step:=T 0=T Bead:=T pbc="F F F"
C      -42.78890000     -32.27940000     -71.11930000
C      -42.77580000     -33.67400000     -71.06570000
C      -43.48600000     -34.30770000     -70.01630000
C      -44.26930000     -33.56740000     -69.06890000
C      -44.36030000     -32.21040000     -69.23230000
C      -43.68440000     -31.56200000     -70.23560000
H      -42.25880000     -31.72600000     -71.88870000
H      -43.47640000     -35.40180000     -69.86060000
H      -44.93330000     -31.70080000     -68.45330000
H      -43.73710000     -30.46210000     -70.27620000
C      -44.81360000     -34.23240000     -67.85030000
H      -44.44710000     -33.65720000     -66.96890000
H      -44.55730000     -35.30810000     -67.76810000
C      -41.77820000     -34.39750000     -71.94960000
H      -40.76430000     -34.07400000     -71.87600000
H      -41.72360000     -35.52270000     -71.66140000
S      -46.66580000     -34.08280000     -67.77260000
S      -42.20440000     -34.38830000     -73.79510000
C      -47.26610000     -35.36890000     -68.96170000
H      -46.77320000     -36.27090000     -68.65760000
H      -48.36840000     -35.34180000     -68.82990000
C      -43.75670000     -35.32780000     -73.91280000
H      -43.59060000     -36.39340000     -73.96710000
H      -44.12950000     -34.92880000     -74.84520000
C      -44.90530000     -35.12880000     -72.92740000
H      -45.63860000     -35.95350000     -73.04050000
H      -44.65490000     -35.16750000     -71.86630000
C      -46.94400000     -35.12720000     -70.44240000
H      -47.39430000     -35.89780000     -71.06400000
H      -45.85870000     -35.30460000     -70.45560000
C      -47.30400000     -33.77620000     -71.00420000
C      -48.29830000     -32.94450000     -70.55500000
C      -46.56920000     -33.23860000     -72.10570000
H      -48.87430000     -33.11170000     -69.67150000
C      -46.97810000     -31.94150000     -72.37870000
C      -45.53460000     -33.73650000     -73.03490000
C      -45.13030000     -32.80130000     -73.97120000
S      -48.34530000     -31.40270000     -71.47900000
S      -46.15600000     -31.29970000     -73.71430000
H      -44.39340000     -32.88340000     -74.73870000
