40
Properties=species:S:1:pos:R:3 #=T CELL(abcABC):=T 1.889726e+02=T 90.00000=T Traj:=T positionsangstrom=T Step:=T 0=T Bead:=T pbc="F F F"
C      -42.99590000     -32.21920000     -70.98050000
C      -42.74400000     -33.55960000     -70.82370000
C      -43.35980000     -34.20300000     -69.69300000
C      -44.19060000     -33.50200000     -68.78960000
C      -44.35110000     -32.12480000     -68.96080000
C      -43.72940000     -31.49090000     -69.98100000
H      -42.57350000     -31.61530000     -71.79390000
H      -43.16270000     -35.27770000     -69.48670000
H      -45.07150000     -31.57030000     -68.31140000
H      -44.02930000     -30.47250000     -70.12790000
C      -44.98420000     -34.20770000     -67.71550000
H      -44.83160000     -33.85800000     -66.66420000
H      -44.91350000     -35.30810000     -67.69550000
C      -41.86020000     -34.36350000     -71.74920000
H      -40.80720000     -34.31660000     -71.47900000
H      -42.15920000     -35.36870000     -71.59400000
S      -46.86220000     -33.93840000     -67.91820000
S      -42.25700000     -33.93530000     -73.49690000
C      -47.33660000     -35.37600000     -68.94970000
H      -46.79120000     -36.34490000     -68.50220000
H      -48.42180000     -35.54650000     -68.70560000
C      -43.44790000     -35.31620000     -73.74860000
H      -42.93010000     -36.30300000     -73.71320000
H      -43.73170000     -35.19740000     -74.74750000
C      -44.67640000     -35.19110000     -72.90180000
H      -45.42480000     -36.01800000     -73.10490000
H      -44.31390000     -35.22560000     -71.84540000
C      -47.11680000     -35.25870000     -70.53240000
H      -47.95210000     -35.95260000     -70.89880000
H      -46.15390000     -35.78410000     -70.67480000
C      -47.26410000     -33.84810000     -71.11480000
C      -48.07500000     -32.84480000     -70.61800000
C      -46.57260000     -33.45810000     -72.32430000
H      -48.78210000     -33.04520000     -69.76340000
C      -47.02100000     -32.19070000     -72.77200000
C      -45.41890000     -33.91890000     -73.11740000
C      -45.20360000     -33.07150000     -74.16850000
S      -48.11840000     -31.47680000     -71.59100000
S      -46.21620000     -31.59060000     -74.14760000
H      -44.41940000     -33.06080000     -74.90330000
