40
Properties=species:S:1:pos:R:3 #=T CELL(abcABC):=T 1.889726e+02=T 90.00000=T Traj:=T positionsangstrom=T Step:=T 0=T Bead:=T pbc="F F F"
C      -43.34240000     -36.36260000     -70.81840000
C      -44.46910000     -36.34810000     -69.96020000
C      -45.76580000     -36.48000000     -70.54370000
C      -46.00960000     -36.52080000     -71.89310000
C      -44.86630000     -36.51010000     -72.76770000
C      -43.58290000     -36.42130000     -72.19780000
H      -42.34700000     -36.35470000     -70.41820000
H      -46.67220000     -36.41370000     -69.88170000
H      -45.03600000     -36.58240000     -73.83670000
H      -42.75410000     -36.42610000     -72.91570000
C      -47.40610000     -36.44800000     -72.33290000
H      -48.20570000     -36.38160000     -71.61460000
H      -47.58800000     -37.36210000     -72.94830000
C      -44.34620000     -36.18710000     -68.46660000
H      -44.69270000     -37.04610000     -67.79990000
H      -43.26720000     -35.96200000     -68.20940000
S      -47.56200000     -34.99720000     -73.52330000
S      -45.22900000     -34.73450000     -67.74570000
C      -48.13120000     -33.66450000     -72.38060000
H      -48.62280000     -32.93110000     -73.02380000
H      -48.82360000     -34.02360000     -71.59260000
C      -44.40340000     -33.48870000     -68.91360000
H      -44.43890000     -33.81110000     -69.95960000
H      -43.42550000     -33.36780000     -68.56740000
C      -45.05690000     -32.06640000     -68.85180000
H      -46.19190000     -32.12940000     -68.97040000
H      -44.88420000     -31.60560000     -67.89400000
C      -47.03900000     -33.06220000     -71.47210000
H      -46.37750000     -33.76780000     -71.11690000
H      -47.50950000     -32.60580000     -70.58370000
C      -46.10600000     -32.10360000     -72.22420000
C      -46.25560000     -31.81930000     -73.55640000
C      -45.14570000     -31.26090000     -71.50790000
H      -46.73630000     -32.39100000     -74.23800000
C      -44.51270000     -30.32120000     -72.30830000
C      -44.64170000     -31.13930000     -70.10330000
C      -43.74360000     -30.12840000     -69.97870000
S      -45.08760000     -30.52800000     -73.98680000
S      -43.44840000     -29.15030000     -71.43990000
H      -43.22380000     -29.91950000     -69.08820000
