40
Properties=species:S:1:pos:R:3 #=T CELL(abcABC):=T 1.889726e+02=T 90.00000=T Traj:=T positionsangstrom=T Step:=T 0=T Bead:=T pbc="F F F"
C      -47.51030000     -31.56420000     -72.94470000
C      -46.43570000     -31.70770000     -73.82420000
C      -45.22210000     -30.98120000     -73.51550000
C      -45.19960000     -30.04880000     -72.52640000
C      -46.26810000     -29.96910000     -71.61340000
C      -47.35710000     -30.76040000     -71.78520000
H      -48.47240000     -32.09180000     -73.20870000
H      -44.32410000     -31.16660000     -74.17680000
H      -46.22090000     -29.29110000     -70.73920000
H      -48.06520000     -30.62060000     -70.94650000
C      -43.95210000     -29.34850000     -72.15180000
H      -44.07430000     -28.54670000     -71.42090000
H      -43.50690000     -28.95070000     -73.05200000
C      -46.63370000     -32.70080000     -75.03310000
H      -47.65240000     -32.78460000     -75.27810000
H      -46.08200000     -32.36230000     -75.90780000
S      -42.68010000     -30.50530000     -71.51990000
S      -45.94760000     -34.40050000     -74.87260000
C      -43.50800000     -31.54750000     -70.18890000
H      -42.74840000     -31.65690000     -69.43630000
H      -44.31220000     -31.01490000     -69.75380000
C      -46.44970000     -35.05360000     -73.24100000
H      -47.10450000     -35.88910000     -73.35680000
H      -46.90770000     -34.16010000     -72.74500000
C      -45.04760000     -35.47120000     -72.53740000
H      -44.57020000     -36.25590000     -73.08490000
H      -44.37180000     -34.64680000     -72.65890000
C      -43.96760000     -32.86190000     -70.71520000
H      -43.10180000     -33.41550000     -71.13640000
H      -44.70740000     -32.79870000     -71.46830000
C      -44.60430000     -33.77830000     -69.63540000
C      -44.67210000     -33.41170000     -68.29850000
C      -45.13750000     -35.07420000     -69.90460000
H      -44.51020000     -32.40280000     -67.87370000
C      -45.54940000     -35.68710000     -68.74420000
C      -45.16190000     -35.91990000     -71.06880000
C      -45.61460000     -37.18420000     -70.75230000
S      -45.41160000     -34.67770000     -67.35530000
S      -46.12550000     -37.33250000     -69.08820000
H      -45.71490000     -37.93460000     -71.44980000
