40
Properties=species:S:1:pos:R:3 #=T CELL(abcABC):=T 1.889726e+02=T 90.00000=T Traj:=T positionsangstrom=T Step:=T 0=T Bead:=T pbc="F F F"
C      -43.04390000     -32.18780000     -71.37730000
C      -42.75830000     -33.57380000     -71.59950000
C      -42.99650000     -34.47710000     -70.56210000
C      -43.65270000     -34.10340000     -69.38470000
C      -44.00710000     -32.74540000     -69.23930000
C      -43.65900000     -31.78270000     -70.17280000
H      -42.92260000     -31.67210000     -72.29410000
H      -42.78800000     -35.51010000     -70.84130000
H      -44.40350000     -32.46140000     -68.22110000
H      -44.05410000     -30.72470000     -70.01150000
C      -44.06120000     -35.21310000     -68.28820000
H      -43.26110000     -35.20210000     -67.53960000
H      -43.97040000     -36.17540000     -68.82020000
C      -42.05280000     -33.91030000     -72.89910000
H      -41.17840000     -33.21190000     -72.99140000
H      -41.71320000     -34.94490000     -73.01030000
S      -45.69320000     -34.89010000     -67.49320000
S      -43.17230000     -33.67830000     -74.37320000
C      -46.88980000     -35.48520000     -68.73860000
H      -46.91930000     -36.60720000     -68.64810000
H      -47.89940000     -35.17660000     -68.67370000
C      -44.35190000     -35.07500000     -74.20110000
H      -43.78910000     -36.04630000     -73.99110000
H      -44.76830000     -35.19920000     -75.21450000
C      -45.37030000     -34.98250000     -73.04920000
H      -46.08870000     -35.81360000     -72.98870000
H      -44.78650000     -35.02540000     -72.07100000
C      -46.71380000     -35.04060000     -70.18880000
H      -47.37400000     -35.65560000     -70.73670000
H      -45.72210000     -35.29510000     -70.45620000
C      -47.11920000     -33.64290000     -70.56700000
C      -47.54240000     -32.60240000     -69.77050000
C      -46.83640000     -33.17360000     -71.89090000
H      -47.72110000     -32.54390000     -68.67550000
C      -47.22030000     -31.82170000     -72.08520000
C      -46.20010000     -33.70830000     -73.03240000
C      -46.27130000     -32.86530000     -74.14150000
S      -47.67610000     -31.05330000     -70.59860000
S      -46.80160000     -31.23030000     -73.64810000
H      -45.87330000     -32.91050000     -75.14940000
