40
Properties=species:S:1:pos:R:3 #=T CELL(abcABC):=T 1.889726e+02=T 90.00000=T Traj:=T positionsangstrom=T Step:=T 0=T Bead:=T pbc="F F F"
C      -47.64260000     -31.87880000     -72.91690000
C      -46.64630000     -31.87510000     -73.90100000
C      -45.58590000     -30.96770000     -73.79940000
C      -45.46710000     -30.09590000     -72.70340000
C      -46.48510000     -30.13890000     -71.76250000
C      -47.59490000     -30.96560000     -71.89340000
H      -48.45100000     -32.63390000     -72.92220000
H      -44.76410000     -30.96540000     -74.49260000
H      -46.38370000     -29.50680000     -70.85620000
H      -48.32360000     -30.88300000     -71.08180000
C      -44.16760000     -29.41250000     -72.38560000
H      -44.37800000     -28.82340000     -71.50880000
H      -43.86110000     -28.75730000     -73.23830000
C      -46.69680000     -32.91650000     -75.01990000
H      -47.70310000     -33.18340000     -75.25180000
H      -46.32990000     -32.53770000     -75.95080000
S      -42.83740000     -30.59360000     -71.95490000
S      -45.71990000     -34.45260000     -74.70790000
C      -43.53000000     -31.56510000     -70.55800000
H      -43.09330000     -31.28340000     -69.59930000
H      -44.61630000     -31.34290000     -70.44470000
C      -46.07710000     -34.93300000     -72.99240000
H      -47.00280000     -35.53630000     -73.04650000
H      -46.29250000     -34.07500000     -72.36570000
C      -44.98080000     -35.72590000     -72.39170000
H      -44.80650000     -36.64700000     -72.98710000
H      -44.09450000     -35.09680000     -72.44950000
C      -43.28520000     -33.10560000     -70.65550000
H      -42.17940000     -33.24420000     -70.54540000
H      -43.54690000     -33.45010000     -71.67370000
C      -44.03990000     -33.85000000     -69.59270000
C      -44.04770000     -33.54480000     -68.25720000
C      -44.89280000     -35.02190000     -69.79380000
H      -43.53170000     -32.72820000     -67.75200000
C      -45.48630000     -35.50840000     -68.63600000
C      -45.32800000     -35.85480000     -70.93490000
C      -46.20350000     -36.82870000     -70.57670000
S      -45.07360000     -34.54760000     -67.24980000
S      -46.59730000     -36.82990000     -68.82740000
H      -46.67220000     -37.61900000     -71.12130000
