40
Properties=species:S:1:pos:R:3 #=T CELL(abcABC):=T 1.889726e+02=T 90.00000=T Traj:=T positionsangstrom=T Step:=T 0=T Bead:=T pbc="F F F"
C      -47.61170000     -31.50560000     -73.34010000
C      -46.33560000     -31.55160000     -73.93390000
C      -45.20750000     -30.91130000     -73.33010000
C      -45.38740000     -30.03420000     -72.24320000
C      -46.66180000     -29.94070000     -71.65950000
C      -47.74110000     -30.64340000     -72.17090000
H      -48.50260000     -31.86410000     -73.81140000
H      -44.23810000     -30.98960000     -73.72250000
H      -46.92130000     -29.22000000     -70.92830000
H      -48.68050000     -30.50660000     -71.63940000
C      -44.15490000     -29.37910000     -71.70120000
H      -44.42760000     -28.75190000     -70.82900000
H      -43.73150000     -28.68810000     -72.46480000
C      -46.09800000     -32.49310000     -75.10940000
H      -46.69620000     -32.13160000     -75.97590000
H      -45.09560000     -32.52070000     -75.51410000
S      -42.67280000     -30.42710000     -71.17860000
S      -46.74330000     -34.18600000     -74.66930000
C      -43.49120000     -31.55810000     -69.94120000
H      -42.62810000     -31.90960000     -69.39000000
H      -44.14900000     -30.98440000     -69.23980000
C      -46.23080000     -34.54220000     -72.95030000
H      -47.07150000     -35.13410000     -72.45610000
H      -46.19260000     -33.64630000     -72.39250000
C      -44.79860000     -35.28040000     -72.73730000
H      -44.66020000     -36.15950000     -73.42350000
H      -43.96480000     -34.67330000     -72.85510000
C      -44.39300000     -32.63960000     -70.55030000
H      -43.95260000     -32.92740000     -71.48900000
H      -45.36150000     -32.22280000     -70.83020000
C      -44.61060000     -33.81370000     -69.59550000
C      -44.76530000     -33.62170000     -68.24500000
C      -44.86400000     -35.18580000     -69.99040000
H      -44.48040000     -32.66930000     -67.79250000
C      -45.19700000     -36.02920000     -68.92420000
C      -44.90420000     -35.89430000     -71.27210000
C      -45.34440000     -37.17390000     -71.08940000
S      -45.35140000     -35.08810000     -67.46590000
S      -45.58810000     -37.63610000     -69.44440000
H      -45.51720000     -37.98170000     -71.80090000
