40
Properties=species:S:1:pos:R:3 #=T CELL(abcABC):=T 1.889726e+02=T 90.00000=T Traj:=T positionsangstrom=T Step:=T 0=T Bead:=T pbc="F F F"
C      -47.69990000     -31.19670000     -73.55520000
C      -46.32540000     -31.56940000     -73.80740000
C      -45.33120000     -30.91660000     -73.04560000
C      -45.68560000     -30.09740000     -71.96070000
C      -46.99880000     -29.75600000     -71.73420000
C      -48.00790000     -30.26480000     -72.58140000
H      -48.45760000     -31.67650000     -74.15690000
H      -44.33340000     -31.10200000     -73.15800000
H      -47.22040000     -29.00450000     -70.97440000
H      -49.04520000     -29.85330000     -72.65950000
C      -44.60020000     -29.42200000     -71.13510000
H      -44.95490000     -29.19170000     -70.11940000
H      -44.29900000     -28.42630000     -71.59910000
C      -45.93200000     -32.51250000     -74.85080000
H      -46.24240000     -32.13400000     -75.79270000
H      -44.85360000     -32.48220000     -74.84470000
S      -43.02220000     -30.29920000     -70.82300000
S      -46.71480000     -34.18280000     -74.90940000
C      -43.52500000     -31.53600000     -69.65290000
H      -42.63780000     -31.97770000     -69.09710000
H      -44.15840000     -31.08000000     -68.91150000
C      -46.47540000     -34.86460000     -73.23290000
H      -47.04320000     -35.76770000     -73.26860000
H      -46.89310000     -34.20190000     -72.47020000
C      -44.98920000     -35.09700000     -72.79910000
H      -44.53180000     -35.71060000     -73.52070000
H      -44.48070000     -34.15370000     -72.67010000
C      -44.22580000     -32.63830000     -70.41860000
H      -43.68390000     -33.00370000     -71.29570000
H      -45.14680000     -32.33140000     -70.86950000
C      -44.54410000     -33.86540000     -69.57040000
C      -44.57940000     -33.84020000     -68.19950000
C      -44.80780000     -35.13720000     -70.10240000
H      -44.42390000     -32.99770000     -67.52720000
C      -44.94840000     -36.10550000     -69.08680000
C      -44.95910000     -35.72520000     -71.41130000
C      -45.32750000     -37.02170000     -71.34650000
S      -44.82610000     -35.40400000     -67.48490000
S      -45.30200000     -37.69700000     -69.69290000
H      -45.58070000     -37.59470000     -72.27870000
