40
Properties=species:S:1:pos:R:3 #=T CELL(abcABC):=T 1.889726e+02=T 90.00000=T Traj:=T positionsangstrom=T Step:=T 0=T Bead:=T pbc="F F F"
C      -47.67240000     -30.40620000     -73.86660000
C      -46.37220000     -31.00760000     -73.75700000
C      -45.55630000     -30.52870000     -72.72240000
C      -45.95890000     -29.58740000     -71.78310000
C      -47.22190000     -28.95070000     -71.94700000
C      -48.02780000     -29.39010000     -72.98630000
H      -48.31750000     -30.81420000     -74.60450000
H      -44.68540000     -31.14860000     -72.58040000
H      -47.53740000     -28.15160000     -71.18970000
H      -48.95070000     -28.90060000     -73.19980000
C      -44.96890000     -29.22000000     -70.66770000
H      -45.47480000     -29.24970000     -69.67480000
H      -44.66190000     -28.16880000     -70.82420000
C      -45.74410000     -32.02120000     -74.73860000
H      -45.78170000     -31.73580000     -75.77680000
H      -44.63720000     -32.15570000     -74.59400000
S      -43.48920000     -30.26100000     -70.48440000
S      -46.61040000     -33.66900000     -74.73850000
C      -43.97760000     -31.79210000     -69.49900000
H      -43.01440000     -31.98200000     -69.02300000
H      -44.72540000     -31.35550000     -68.79680000
C      -46.31050000     -34.38360000     -72.98990000
H      -47.22770000     -34.91600000     -72.66950000
H      -46.16550000     -33.47380000     -72.32990000
C      -45.01120000     -35.24630000     -72.83880000
H      -44.96900000     -35.81800000     -73.76910000
H      -44.21000000     -34.53210000     -72.84270000
C      -44.43020000     -32.99040000     -70.32000000
H      -43.82830000     -33.13550000     -71.19910000
H      -45.41830000     -32.69430000     -70.67710000
C      -44.35570000     -34.35130000     -69.59620000
C      -44.03670000     -34.49990000     -68.26420000
C      -44.73540000     -35.57880000     -70.22710000
H      -43.95210000     -33.70270000     -67.54660000
C      -44.73560000     -36.64470000     -69.31780000
C      -45.01910000     -36.06910000     -71.56360000
C      -45.40460000     -37.39820000     -71.49780000
S      -44.30450000     -36.13630000     -67.77240000
S      -45.20530000     -38.16630000     -69.92730000
H      -45.69920000     -37.96450000     -72.42050000
