40
Properties=species:S:1:pos:R:3 #=T CELL(abcABC):=T 1.889726e+02=T 90.00000=T Traj:=T positionsangstrom=T Step:=T 0=T Bead:=T pbc="F F F"
C      -47.59300000     -30.42220000     -73.94570000
C      -46.40250000     -31.11410000     -73.89950000
C      -45.51970000     -30.79610000     -72.84390000
C      -45.81950000     -29.79940000     -71.89890000
C      -47.13610000     -29.23640000     -71.94150000
C      -48.00140000     -29.52530000     -72.98330000
H      -48.22620000     -30.65040000     -74.79300000
H      -44.63900000     -31.37320000     -72.80610000
H      -47.44100000     -28.43710000     -71.19750000
H      -48.85970000     -28.85820000     -73.08740000
C      -44.86570000     -29.27780000     -70.89810000
H      -45.49300000     -28.97740000     -70.01280000
H      -44.50050000     -28.32460000     -71.36320000
C      -45.95110000     -32.11520000     -74.89480000
H      -46.17720000     -31.75600000     -75.87810000
H      -44.84680000     -32.17080000     -74.85530000
S      -43.34250000     -30.25870000     -70.40500000
S      -46.65190000     -33.85140000     -74.80680000
C      -44.14660000     -31.64450000     -69.50120000
H      -43.39760000     -31.89570000     -68.71610000
H      -45.10200000     -31.36970000     -69.09350000
C      -46.38090000     -34.41960000     -72.99920000
H      -47.20900000     -35.02290000     -72.81270000
H      -46.41290000     -33.50130000     -72.32530000
C      -45.12610000     -35.32280000     -72.82970000
H      -45.30740000     -36.09580000     -73.60590000
H      -44.15090000     -34.76850000     -73.04270000
C      -44.33520000     -32.89150000     -70.39860000
H      -43.54370000     -32.79400000     -71.19370000
H      -45.26910000     -32.75350000     -70.97060000
C      -44.35310000     -34.23070000     -69.60040000
C      -44.04420000     -34.34320000     -68.24780000
C      -44.71210000     -35.48200000     -70.22500000
H      -43.72560000     -33.51490000     -67.58460000
C      -44.72980000     -36.47600000     -69.22100000
C      -45.18770000     -36.01600000     -71.44990000
C      -45.49320000     -37.36650000     -71.36770000
S      -44.32180000     -35.93800000     -67.63540000
S      -45.16860000     -38.01800000     -69.80770000
H      -45.83190000     -38.00480000     -72.18890000
