40
Properties=species:S:1:pos:R:3 #=T CELL(abcABC):=T 1.889726e+02=T 90.00000=T Traj:=T positionsangstrom=T Step:=T 0=T Bead:=T pbc="F F F"
C      -47.45980000     -30.71720000     -73.98480000
C      -46.18050000     -31.25740000     -73.91620000
C      -45.32980000     -30.84030000     -72.90210000
C      -45.83190000     -29.88600000     -71.95650000
C      -47.16100000     -29.45210000     -72.02450000
C      -47.99180000     -29.89930000     -73.02630000
H      -47.98860000     -31.09050000     -74.85610000
H      -44.27740000     -31.17890000     -72.95330000
H      -47.56960000     -28.84100000     -71.25200000
H      -49.09060000     -29.66770000     -73.04780000
C      -44.88860000     -29.25220000     -70.96220000
H      -45.43210000     -29.17720000     -70.05260000
H      -44.52290000     -28.25840000     -71.28960000
C      -45.72130000     -32.31490000     -74.89580000
H      -45.83500000     -31.88970000     -75.96240000
H      -44.66640000     -32.58690000     -74.70790000
S      -43.37890000     -30.21130000     -70.47780000
S      -46.84960000     -33.78360000     -74.80120000
C      -44.07250000     -31.63980000     -69.52760000
H      -43.37970000     -31.89070000     -68.70290000
H      -44.94970000     -31.31640000     -69.01550000
C      -46.68170000     -34.49320000     -73.04210000
H      -47.47730000     -35.25440000     -72.90730000
H      -46.91090000     -33.66040000     -72.32130000
C      -45.27180000     -35.05370000     -72.65870000
H      -44.84790000     -35.62210000     -73.43220000
H      -44.59680000     -34.19650000     -72.48620000
C      -44.24760000     -32.85750000     -70.37730000
H      -43.41930000     -33.00700000     -71.11750000
H      -45.10640000     -32.64330000     -70.98450000
C      -44.48250000     -34.10170000     -69.55900000
C      -44.20360000     -34.19430000     -68.19890000
C      -44.77580000     -35.42600000     -70.13990000
H      -43.95470000     -33.33720000     -67.54950000
C      -44.74700000     -36.39890000     -69.11900000
C      -45.09810000     -35.92700000     -71.46180000
C      -45.26580000     -37.31890000     -71.40600000
S      -44.22560000     -35.85910000     -67.56280000
S      -45.19220000     -37.96740000     -69.82850000
H      -45.58140000     -37.87270000     -72.24740000
