40
Properties=species:S:1:pos:R:3 #=T CELL(abcABC):=T 1.889726e+02=T 90.00000=T Traj:=T positionsangstrom=T Step:=T 0=T Bead:=T pbc="F F F"
C      -47.53620000     -31.15630000     -73.71390000
C      -46.16560000     -31.53320000     -73.76030000
C      -45.24940000     -30.95200000     -72.85870000
C      -45.71620000     -30.01910000     -71.92910000
C      -47.07420000     -29.64670000     -71.90020000
C      -47.99580000     -30.26770000     -72.74820000
H      -48.27990000     -31.71040000     -74.30940000
H      -44.20180000     -31.10220000     -72.95240000
H      -47.50100000     -29.02620000     -71.04410000
H      -49.06760000     -29.98960000     -72.76880000
C      -44.70200000     -29.19570000     -71.13860000
H      -45.15960000     -28.72360000     -70.28840000
H      -44.43480000     -28.35780000     -71.81760000
C      -45.80740000     -32.49050000     -74.88170000
H      -46.07940000     -32.04640000     -75.86750000
H      -44.72230000     -32.74760000     -74.93150000
S      -43.11740000     -30.04590000     -70.68270000
S      -46.76840000     -34.13420000     -74.85360000
C      -43.70460000     -31.48080000     -69.61470000
H      -42.79250000     -31.96690000     -69.19620000
H      -44.29500000     -31.16180000     -68.78480000
C      -46.55640000     -34.52760000     -73.04250000
H      -47.16990000     -35.38800000     -72.80230000
H      -46.99730000     -33.73230000     -72.37810000
C      -45.09850000     -35.03590000     -72.75140000
H      -44.66770000     -35.63150000     -73.56750000
H      -44.39860000     -34.19440000     -72.69130000
C      -44.48180000     -32.64800000     -70.40340000
H      -43.90820000     -32.76240000     -71.33360000
H      -45.48140000     -32.23680000     -70.71070000
C      -44.55930000     -33.92630000     -69.60910000
C      -44.40210000     -34.00130000     -68.22740000
C      -44.81750000     -35.29490000     -70.11980000
H      -44.10120000     -33.31230000     -67.49380000
C      -44.99390000     -36.23610000     -69.09250000
C      -45.04960000     -35.83840000     -71.47830000
C      -45.17380000     -37.18320000     -71.37490000
S      -44.54580000     -35.65440000     -67.55920000
S      -45.36360000     -37.82510000     -69.75630000
H      -45.50360000     -37.74250000     -72.30180000
