40
Properties=species:S:1:pos:R:3 #=T CELL(abcABC):=T 1.889726e+02=T 90.00000=T Traj:=T positionsangstrom=T Step:=T 0=T Bead:=T pbc="F F F"
C      -43.40290000     -30.63840000     -69.63980000
C      -44.35300000     -30.13280000     -70.46350000
C      -44.25460000     -30.31740000     -71.84580000
C      -43.21250000     -31.03240000     -72.40010000
C      -42.23920000     -31.57210000     -71.57210000
C      -42.29190000     -31.29480000     -70.24780000
H      -43.46040000     -30.48480000     -68.55710000
H      -45.02670000     -29.91800000     -72.54940000
H      -41.36950000     -32.09580000     -72.09390000
H      -41.57950000     -31.69110000     -69.54550000
C      -43.22610000     -31.16580000     -73.88860000
H      -42.34140000     -31.72050000     -74.25060000
H      -43.30690000     -30.24240000     -74.41310000
C      -45.58520000     -29.32270000     -69.97090000
H      -45.58300000     -29.19260000     -68.88670000
H      -45.58110000     -28.39960000     -70.45750000
S      -44.71660000     -32.23300000     -74.39380000
S      -47.16930000     -30.26730000     -70.45760000
C      -44.47700000     -33.89860000     -73.55300000
H      -43.70450000     -34.43590000     -74.17230000
H      -44.29570000     -33.83790000     -72.46440000
C      -46.84900000     -31.97640000     -69.73730000
H      -47.74560000     -32.32570000     -69.50960000
H      -46.22110000     -31.83120000     -68.85400000
C      -46.15970000     -32.93840000     -70.73460000
H      -46.59230000     -32.96110000     -71.73070000
H      -45.11530000     -32.66680000     -70.85240000
C      -45.93440000     -34.58690000     -73.52770000
H      -46.11270000     -34.88530000     -74.56790000
H      -46.65990000     -33.86490000     -73.32850000
C      -45.97870000     -35.68950000     -72.55930000
C      -45.92150000     -37.00600000     -72.86510000
C      -46.09330000     -35.53660000     -71.08240000
H      -45.90080000     -37.39870000     -73.86170000
C      -45.93260000     -36.72180000     -70.37490000
C      -46.22010000     -34.36300000     -70.22330000
C      -46.43780000     -34.74560000     -68.92170000
S      -45.80040000     -38.10700000     -71.41870000
S      -46.41660000     -36.47670000     -68.69370000
H      -46.41890000     -34.25040000     -67.97240000
