40
Properties=species:S:1:pos:R:3 #=T CELL(abcABC):=T 1.889726e+02=T 90.00000=T Traj:=T positionsangstrom=T Step:=T 0=T Bead:=T pbc="F F F"
C      -43.57540000     -30.91430000     -69.81750000
C      -44.39440000     -30.11830000     -70.60230000
C      -44.37760000     -30.18790000     -72.02090000
C      -43.45250000     -31.07930000     -72.62610000
C      -42.47760000     -31.73150000     -71.77980000
C      -42.58260000     -31.73880000     -70.38490000
H      -43.58630000     -30.79860000     -68.75500000
H      -45.11660000     -29.50900000     -72.51020000
H      -41.72870000     -32.34160000     -72.19940000
H      -41.80830000     -32.19350000     -69.70210000
C      -43.36090000     -31.30300000     -74.08590000
H      -42.39020000     -31.73340000     -74.42310000
H      -43.39120000     -30.36370000     -74.67480000
C      -45.42500000     -29.34110000     -69.90670000
H      -45.03410000     -29.06510000     -68.86830000
H      -45.79690000     -28.51800000     -70.53640000
S      -44.76070000     -32.27890000     -74.75660000
S      -47.07550000     -30.24150000     -69.90210000
C      -44.70640000     -33.75140000     -73.55740000
H      -43.90930000     -34.36470000     -73.99620000
H      -44.46110000     -33.33060000     -72.59310000
C      -46.77950000     -31.98380000     -69.35950000
H      -47.49230000     -32.29220000     -68.59400000
H      -45.83520000     -32.01580000     -68.96900000
C      -46.67300000     -32.90650000     -70.54380000
H      -47.54750000     -32.86980000     -71.14320000
H      -45.86560000     -32.55590000     -71.20230000
C      -46.06180000     -34.41990000     -73.46870000
H      -46.24040000     -34.89130000     -74.47020000
H      -46.87730000     -33.72930000     -73.20950000
C      -46.05640000     -35.59300000     -72.47170000
C      -45.80700000     -36.88210000     -72.89690000
C      -46.07600000     -35.44000000     -71.05150000
H      -45.79140000     -37.32820000     -73.88230000
C      -45.90660000     -36.68290000     -70.40360000
C      -46.33130000     -34.34890000     -70.13450000
C      -46.25580000     -34.80250000     -68.86080000
S      -45.66420000     -37.95930000     -71.50960000
S      -45.88650000     -36.50240000     -68.66980000
H      -46.30670000     -34.13510000     -67.99310000
