40
Properties=species:S:1:pos:R:3 #=T CELL(abcABC):=T 1.889726e+02=T 90.00000=T Traj:=T positionsangstrom=T Step:=T 0=T Bead:=T pbc="F F F"
C      -43.10980000     -30.44890000     -69.76800000
C      -44.35620000     -30.34300000     -70.47300000
C      -44.30930000     -30.78080000     -71.81670000
C      -43.10110000     -31.10520000     -72.48030000
C      -41.88450000     -31.13420000     -71.72580000
C      -41.92630000     -30.87300000     -70.36560000
H      -43.21990000     -30.33810000     -68.70000000
H      -45.16770000     -30.67580000     -72.43100000
H      -40.96900000     -31.45320000     -72.19850000
H      -41.00620000     -31.09910000     -69.80850000
C      -43.09530000     -31.32640000     -73.95550000
H      -42.13210000     -31.65250000     -74.30480000
H      -43.23420000     -30.37370000     -74.47010000
C      -45.49410000     -29.65450000     -69.80270000
H      -45.34830000     -29.75670000     -68.75460000
H      -45.50380000     -28.52150000     -70.01690000
S      -44.43930000     -32.34760000     -74.64600000
S      -47.25550000     -30.17110000     -70.21960000
C      -44.42440000     -33.77910000     -73.42420000
H      -43.58260000     -34.46690000     -73.64280000
H      -44.25560000     -33.26950000     -72.42510000
C      -47.39940000     -31.96590000     -69.86300000
H      -48.49880000     -32.12900000     -69.92810000
H      -47.28190000     -32.12050000     -68.85240000
C      -46.49050000     -32.90360000     -70.68330000
H      -46.64830000     -32.85480000     -71.68170000
H      -45.50190000     -32.56160000     -70.60500000
C      -45.67540000     -34.60060000     -73.53640000
H      -45.65630000     -34.94330000     -74.53210000
H      -46.53940000     -33.86610000     -73.41240000
C      -45.87350000     -35.66380000     -72.46910000
C      -45.72890000     -37.00800000     -72.80200000
C      -46.08830000     -35.48890000     -71.03430000
H      -45.46470000     -37.48750000     -73.72860000
C      -46.21930000     -36.70560000     -70.39100000
C      -46.41830000     -34.33020000     -70.14290000
C      -46.74530000     -34.77730000     -68.82800000
S      -45.91440000     -38.12790000     -71.41130000
S      -46.57220000     -36.47380000     -68.71470000
H      -47.23830000     -34.07720000     -68.23880000
