40
Properties=species:S:1:pos:R:3 #=T CELL(abcABC):=T 1.889726e+02=T 90.00000=T Traj:=T positionsangstrom=T Step:=T 0=T Bead:=T pbc="F F F"
C      -43.05850000     -30.96110000     -69.97110000
C      -44.29430000     -30.41620000     -70.43080000
C      -44.47280000     -30.39550000     -71.82980000
C      -43.55190000     -30.91960000     -72.73260000
C      -42.32620000     -31.41300000     -72.22020000
C      -42.12690000     -31.57980000     -70.86920000
H      -42.85900000     -31.03060000     -68.92360000
H      -45.33600000     -29.84930000     -72.31530000
H      -41.63220000     -31.85710000     -72.95240000
H      -41.21350000     -32.04520000     -70.47990000
C      -43.73230000     -30.90730000     -74.20460000
H      -42.80240000     -30.95930000     -74.79260000
H      -44.11830000     -29.88940000     -74.47500000
C      -45.23570000     -29.86570000     -69.44720000
H      -44.85780000     -29.95480000     -68.42050000
H      -45.26030000     -28.75420000     -69.70990000
S      -45.03320000     -32.10520000     -74.83810000
S      -47.01190000     -30.25940000     -69.71160000
C      -44.77210000     -33.56200000     -73.71900000
H      -44.09260000     -34.24010000     -74.14950000
H      -44.24720000     -33.20830000     -72.80140000
C      -47.07170000     -32.06630000     -69.15070000
H      -48.07390000     -32.40230000     -68.69560000
H      -46.39790000     -32.12910000     -68.29480000
C      -46.56770000     -32.98090000     -70.29680000
H      -47.33120000     -32.93100000     -71.05380000
H      -45.65220000     -32.56210000     -70.83540000
C      -46.12030000     -34.36000000     -73.48360000
H      -46.29860000     -34.80610000     -74.52260000
H      -46.87450000     -33.57250000     -73.25740000
C      -46.01980000     -35.49810000     -72.49310000
C      -45.79020000     -36.79660000     -72.89050000
C      -46.14070000     -35.46850000     -71.01770000
H      -45.70750000     -36.97860000     -73.97750000
C      -45.95330000     -36.71060000     -70.43710000
C      -46.31010000     -34.44630000     -70.00710000
C      -46.21170000     -34.94070000     -68.69710000
S      -45.61640000     -37.93640000     -71.62090000
S      -45.93740000     -36.67080000     -68.70620000
H      -46.15410000     -34.44520000     -67.71580000
