40
Properties=species:S:1:pos:R:3 #=T CELL(abcABC):=T 1.889726e+02=T 90.00000=T Traj:=T positionsangstrom=T Step:=T 0=T Bead:=T pbc="F F F"
C      -42.35980000     -30.84190000     -69.82150000
C      -43.70750000     -30.44890000     -70.12880000
C      -44.09380000     -30.47780000     -71.46240000
C      -43.18640000     -30.77960000     -72.51410000
C      -41.83470000     -31.04180000     -72.20920000
C      -41.36650000     -31.11280000     -70.85150000
H      -42.06310000     -30.90260000     -68.75370000
H      -45.12420000     -30.30480000     -71.67330000
H      -41.16350000     -31.35970000     -72.97420000
H      -40.33020000     -31.19860000     -70.55210000
C      -43.58450000     -30.76210000     -73.94270000
H      -42.75240000     -31.06080000     -74.63010000
H      -43.86950000     -29.75400000     -74.24520000
C      -44.69960000     -30.01610000     -69.02690000
H      -44.37440000     -30.40320000     -68.04000000
H      -44.66920000     -28.97050000     -68.94820000
S      -45.15320000     -31.70650000     -74.24420000
S      -46.42500000     -30.53730000     -69.37410000
C      -44.96380000     -33.32300000     -73.47900000
H      -44.28090000     -33.90220000     -74.08410000
H      -44.58880000     -33.35680000     -72.45850000
C      -46.23130000     -32.35990000     -69.19190000
H      -46.51640000     -32.58180000     -68.15530000
H      -45.17500000     -32.57050000     -69.22970000
C      -47.08690000     -33.11010000     -70.30190000
H      -48.18100000     -32.81130000     -70.39000000
H      -46.62000000     -32.94260000     -71.30620000
C      -46.23020000     -34.12080000     -73.52600000
H      -46.32720000     -34.40310000     -74.64510000
H      -47.18870000     -33.59550000     -73.39710000
C      -46.27040000     -35.37950000     -72.73580000
C      -46.12060000     -36.59600000     -73.31240000
C      -46.50410000     -35.47780000     -71.30240000
H      -45.95560000     -36.79740000     -74.40130000
C      -46.32920000     -36.82370000     -70.87180000
C      -46.80520000     -34.61310000     -70.19550000
C      -46.79210000     -35.31470000     -68.99530000
S      -46.15060000     -37.94950000     -72.17400000
S      -46.54530000     -37.02920000     -69.14020000
H      -47.18720000     -34.93260000     -68.06480000
