40
Properties=species:S:1:pos:R:3 #=T CELL(abcABC):=T 1.889726e+02=T 90.00000=T Traj:=T positionsangstrom=T Step:=T 0=T Bead:=T pbc="F F F"
C      -42.12660000     -30.56840000     -69.76760000
C      -43.47250000     -30.43350000     -70.12710000
C      -43.85770000     -30.65270000     -71.45250000
C      -42.91720000     -30.91190000     -72.50590000
C      -41.58680000     -31.03610000     -72.12000000
C      -41.21250000     -30.90420000     -70.73510000
H      -41.96130000     -30.32650000     -68.71390000
H      -44.95570000     -30.70490000     -71.68020000
H      -40.85570000     -31.31760000     -72.87630000
H      -40.23310000     -31.30140000     -70.48060000
C      -43.35870000     -31.23120000     -73.94800000
H      -42.84870000     -32.16890000     -74.27320000
H      -43.09340000     -30.37000000     -74.62040000
C      -44.51170000     -30.05770000     -69.11080000
H      -44.19230000     -30.23630000     -68.10460000
H      -44.76850000     -29.02160000     -69.05040000
S      -45.15680000     -31.58780000     -74.17520000
S      -46.22250000     -30.68620000     -69.28380000
C      -45.30880000     -33.07320000     -73.15210000
H      -44.45930000     -33.74620000     -73.47370000
H      -45.26690000     -32.93430000     -72.05230000
C      -46.10770000     -32.53000000     -69.28530000
H      -45.90050000     -32.82200000     -68.25970000
H      -45.36510000     -32.77090000     -70.07610000
C      -47.34930000     -33.13140000     -69.98110000
H      -48.23610000     -33.03920000     -69.33420000
H      -47.60160000     -32.64880000     -70.92820000
C      -46.58380000     -33.92260000     -73.42080000
H      -46.80160000     -34.07250000     -74.47360000
H      -47.43740000     -33.23620000     -73.06920000
C      -46.48820000     -35.23980000     -72.71480000
C      -46.01020000     -36.34340000     -73.39120000
C      -46.76460000     -35.46240000     -71.31510000
H      -45.79880000     -36.30760000     -74.43580000
C      -46.62570000     -36.82090000     -71.06090000
C      -47.12660000     -34.71080000     -70.13740000
C      -47.12770000     -35.52000000     -68.98930000
S      -45.92990000     -37.74770000     -72.38120000
S      -46.80640000     -37.20620000     -69.40330000
H      -47.23140000     -35.23470000     -67.94690000
