40
Properties=species:S:1:pos:R:3 #=T CELL(abcABC):=T 1.889726e+02=T 90.00000=T Traj:=T positionsangstrom=T Step:=T 0=T Bead:=T pbc="F F F"
C      -43.65930000     -36.50670000     -71.04290000
C      -44.70760000     -36.26430000     -70.10830000
C      -46.01780000     -36.17900000     -70.66430000
C      -46.30180000     -36.26920000     -72.02040000
C      -45.19360000     -36.22010000     -72.87460000
C      -43.91260000     -36.36940000     -72.36330000
H      -42.62960000     -36.82770000     -70.74540000
H      -46.95520000     -36.13800000     -70.02210000
H      -45.33850000     -36.22610000     -73.91300000
H      -43.13370000     -36.38200000     -73.09660000
C      -47.69960000     -36.08360000     -72.60280000
H      -48.30750000     -36.22920000     -71.69050000
H      -47.99750000     -36.86060000     -73.34830000
C      -44.53910000     -36.34140000     -68.63290000
H      -45.05340000     -37.13220000     -68.14700000
H      -43.47030000     -36.52190000     -68.40810000
S      -47.94580000     -34.46850000     -73.38740000
S      -45.13980000     -34.75440000     -67.92640000
C      -48.35360000     -33.36300000     -72.00610000
H      -48.91470000     -32.57400000     -72.43520000
H      -49.07630000     -33.95680000     -71.36160000
C      -44.24110000     -33.61700000     -69.09990000
H      -44.57730000     -33.96970000     -70.07960000
H      -43.10060000     -33.71590000     -69.06630000
C      -44.70080000     -32.19400000     -68.85520000
H      -45.79880000     -32.23530000     -68.69680000
H      -44.27310000     -31.74470000     -68.01530000
C      -47.06520000     -33.03750000     -71.24150000
H      -46.54990000     -33.99640000     -71.05000000
H      -47.37940000     -32.60290000     -70.27130000
C      -46.05720000     -32.16810000     -71.96860000
C      -46.23150000     -31.73460000     -73.29670000
C      -44.91070000     -31.49100000     -71.34360000
H      -46.99950000     -32.12960000     -74.04160000
C      -44.31620000     -30.56500000     -72.21400000
C      -44.29960000     -31.36180000     -69.98880000
C      -43.22490000     -30.50880000     -69.97600000
S      -44.99950000     -30.57720000     -73.81740000
S      -42.97150000     -29.62060000     -71.52920000
H      -42.59540000     -30.18900000     -69.12100000
