40
Properties=species:S:1:pos:R:3 #=T CELL(abcABC):=T 1.889726e+02=T 90.00000=T Traj:=T positionsangstrom=T Step:=T 0=T Bead:=T pbc="F F F"
C      -42.76530000     -30.69700000     -69.99880000
C      -43.97810000     -30.21860000     -70.46820000
C      -44.33120000     -30.35480000     -71.80470000
C      -43.41900000     -30.91110000     -72.69820000
C      -42.16940000     -31.39790000     -72.25320000
C      -41.84850000     -31.22980000     -70.90280000
H      -42.61980000     -30.65360000     -68.93820000
H      -45.30650000     -29.92630000     -72.20380000
H      -41.48580000     -31.81820000     -72.98930000
H      -40.81410000     -31.50290000     -70.55390000
C      -43.83100000     -30.86560000     -74.14520000
H      -42.96060000     -31.12020000     -74.72470000
H      -44.11370000     -29.82870000     -74.43810000
C      -44.95920000     -29.55060000     -69.46600000
H      -44.44520000     -29.32720000     -68.53160000
H      -45.16900000     -28.59710000     -69.91780000
S      -45.32640000     -31.86670000     -74.58270000
S      -46.54350000     -30.41590000     -69.22720000
C      -44.96950000     -33.61980000     -73.86590000
H      -44.40920000     -34.24950000     -74.55300000
H      -44.23910000     -33.50620000     -73.08040000
C      -45.95070000     -32.17880000     -69.05970000
H      -46.42360000     -32.51620000     -68.14300000
H      -44.86550000     -32.26180000     -68.86500000
C      -46.37890000     -33.02010000     -70.25870000
H      -47.35680000     -32.70810000     -70.62150000
H      -45.68440000     -32.82980000     -71.15220000
C      -46.31740000     -34.24090000     -73.39020000
H      -47.01800000     -34.46510000     -74.28500000
H      -46.71200000     -33.51960000     -72.65770000
C      -46.13120000     -35.52710000     -72.57370000
C      -45.86530000     -36.78650000     -73.10510000
C      -46.31560000     -35.54860000     -71.17810000
H      -45.63760000     -37.15540000     -74.09910000
C      -46.21900000     -36.82040000     -70.63530000
C      -46.38080000     -34.53510000     -70.06580000
C      -46.53000000     -35.13280000     -68.82920000
S      -45.93060000     -38.09550000     -71.87620000
S      -46.41190000     -36.87060000     -68.88080000
H      -46.76590000     -34.59620000     -67.94580000
