40
Properties=species:S:1:pos:R:3 #=T CELL(abcABC):=T 1.889726e+02=T 90.00000=T Traj:=T positionsangstrom=T Step:=T 0=T Bead:=T pbc="F F F"
C      -42.17640000     -30.58010000     -69.71150000
C      -43.49700000     -30.52980000     -70.09970000
C      -43.86370000     -30.56360000     -71.45770000
C      -42.87930000     -30.87700000     -72.46270000
C      -41.54960000     -31.08460000     -72.01820000
C      -41.18210000     -30.85190000     -70.68770000
H      -41.83270000     -30.38920000     -68.69340000
H      -44.86010000     -30.42950000     -71.80990000
H      -40.92730000     -31.40880000     -72.80440000
H      -40.10220000     -30.86240000     -70.44560000
C      -43.24560000     -31.04710000     -73.91030000
H      -42.59080000     -31.87260000     -74.21240000
H      -43.09980000     -30.21080000     -74.57590000
C      -44.53420000     -30.21610000     -69.02410000
H      -44.10210000     -30.65040000     -68.06820000
H      -44.54230000     -29.13290000     -68.94580000
S      -45.00410000     -31.52750000     -74.20890000
S      -46.25320000     -30.86980000     -69.33500000
C      -45.07030000     -33.19330000     -73.29080000
H      -44.43760000     -33.84030000     -73.87040000
H      -44.60930000     -33.15640000     -72.32310000
C      -46.01460000     -32.63820000     -69.67910000
H      -45.45270000     -33.14820000     -68.90930000
H      -45.36680000     -32.75600000     -70.55280000
C      -47.33440000     -33.27570000     -69.86780000
H      -47.97780000     -33.03130000     -68.95900000
H      -47.85640000     -32.62460000     -70.63050000
C      -46.56290000     -33.66050000     -73.11090000
H      -47.02260000     -33.62160000     -74.09560000
H      -47.29100000     -32.98730000     -72.56540000
C      -46.56310000     -35.06870000     -72.59680000
C      -46.28100000     -36.12850000     -73.42120000
C      -46.75720000     -35.42830000     -71.20450000
H      -46.12060000     -35.96740000     -74.46090000
C      -46.54080000     -36.80000000     -71.06580000
C      -47.20400000     -34.76270000     -70.02280000
C      -47.31760000     -35.66410000     -68.96250000
S      -46.05940000     -37.62370000     -72.51940000
S      -46.81800000     -37.29630000     -69.41040000
H      -47.76350000     -35.47140000     -68.00340000
