40
Properties=species:S:1:pos:R:3 #=T CELL(abcABC):=T 1.889726e+02=T 90.00000=T Traj:=T positionsangstrom=T Step:=T 0=T Bead:=T pbc="F F F"
C      -42.05400000     -30.85120000     -69.62780000
C      -43.42290000     -30.64040000     -70.00460000
C      -43.77530000     -30.65830000     -71.33100000
C      -42.83290000     -30.83870000     -72.35100000
C      -41.47430000     -31.01350000     -72.03680000
C      -41.11960000     -31.00310000     -70.60900000
H      -41.76100000     -30.85470000     -68.59070000
H      -44.87730000     -30.65350000     -71.60660000
H      -40.69790000     -31.32560000     -72.74640000
H      -40.17580000     -31.51920000     -70.42580000
C      -43.26140000     -30.77580000     -73.82310000
H      -42.57420000     -31.37350000     -74.43040000
H      -43.21200000     -29.75660000     -74.17240000
C      -44.38590000     -30.17870000     -68.93730000
H      -44.08290000     -30.38260000     -67.92290000
H      -44.54400000     -29.08310000     -68.92680000
S      -45.01670000     -31.41210000     -74.24540000
S      -46.16730000     -30.75420000     -69.21570000
C      -44.96140000     -33.22160000     -73.68060000
H      -44.91820000     -33.82690000     -74.51050000
H      -44.06400000     -33.26840000     -73.08500000
C      -45.83660000     -32.57390000     -69.36140000
H      -45.37170000     -32.87970000     -68.40080000
H      -45.17230000     -32.83730000     -70.13800000
C      -47.10100000     -33.39640000     -69.60360000
H      -47.65540000     -33.30390000     -68.64580000
H      -47.67300000     -32.89380000     -70.48320000
C      -46.24550000     -33.53520000     -72.89640000
H      -47.01040000     -33.23600000     -73.61680000
H      -46.38670000     -33.06080000     -71.98490000
C      -46.34860000     -35.00930000     -72.62450000
C      -46.32000000     -36.06460000     -73.49130000
C      -46.74150000     -35.46420000     -71.28210000
H      -46.04670000     -36.01290000     -74.50610000
C      -46.81600000     -36.87760000     -71.22290000
C      -47.00260000     -34.81340000     -69.96130000
C      -47.14990000     -35.76430000     -69.01140000
S      -46.59290000     -37.63720000     -72.75130000
S      -47.08400000     -37.39160000     -69.59380000
H      -47.17450000     -35.48740000     -67.94720000
