40
Properties=species:S:1:pos:R:3 #=T CELL(abcABC):=T 1.889726e+02=T 90.00000=T Traj:=T positionsangstrom=T Step:=T 0=T Bead:=T pbc="F F F"
C      -42.24140000     -31.15560000     -69.53770000
C      -43.37810000     -30.44410000     -69.93420000
C      -43.62830000     -30.19080000     -71.31580000
C      -42.86440000     -30.87890000     -72.30980000
C      -41.70490000     -31.56970000     -71.91730000
C      -41.45660000     -31.77070000     -70.57250000
H      -42.03730000     -31.48640000     -68.50940000
H      -44.41060000     -29.57700000     -71.67020000
H      -41.12560000     -32.21110000     -72.61670000
H      -40.58500000     -32.18390000     -70.16120000
C      -43.17940000     -30.67570000     -73.73730000
H      -42.51490000     -31.12350000     -74.47260000
H      -43.16850000     -29.59230000     -74.04390000
C      -44.32960000     -29.90220000     -68.88440000
H      -43.92510000     -30.00890000     -67.86270000
H      -44.61400000     -28.91130000     -69.20730000
S      -44.95180000     -31.22910000     -74.23790000
S      -45.90860000     -30.98770000     -68.89270000
C      -44.94650000     -33.04010000     -73.76340000
H      -44.88450000     -33.51930000     -74.71800000
H      -44.03210000     -33.21160000     -73.23290000
C      -45.59960000     -32.77770000     -69.27400000
H      -44.93780000     -33.18960000     -68.52380000
H      -45.06080000     -32.82040000     -70.24950000
C      -47.09240000     -33.44170000     -69.38440000
H      -47.43920000     -33.45640000     -68.37820000
H      -47.63160000     -32.72500000     -69.94830000
C      -46.15920000     -33.38660000     -72.94660000
H      -47.01870000     -33.12550000     -73.45420000
H      -46.08210000     -32.75530000     -72.02060000
C      -46.31650000     -34.81300000     -72.59090000
C      -46.19740000     -35.83470000     -73.51950000
C      -46.68940000     -35.38190000     -71.33020000
H      -45.83920000     -35.62220000     -74.57600000
C      -46.74150000     -36.78080000     -71.33540000
C      -47.10350000     -34.86130000     -69.95980000
C      -47.47360000     -35.88270000     -69.11130000
S      -46.42940000     -37.47960000     -72.93690000
S      -47.48310000     -37.47540000     -69.91170000
H      -47.87570000     -35.68990000     -68.13950000
