40
Properties=species:S:1:pos:R:3 #=T CELL(abcABC):=T 1.889726e+02=T 90.00000=T Traj:=T positionsangstrom=T Step:=T 0=T Bead:=T pbc="F F F"
C      -42.64510000     -33.37920000     -69.43280000
C      -43.18930000     -32.10330000     -69.25950000
C      -43.17460000     -31.28920000     -70.41580000
C      -42.74040000     -31.63750000     -71.69820000
C      -42.20670000     -32.97340000     -71.75630000
C      -42.16880000     -33.83650000     -70.62990000
H      -42.56120000     -33.96610000     -68.55810000
H      -43.37780000     -30.22170000     -70.26050000
H      -41.88610000     -33.42350000     -72.73030000
H      -41.62130000     -34.79780000     -70.71610000
C      -42.77080000     -30.66930000     -72.90260000
H      -42.18310000     -31.13140000     -73.72880000
H      -42.48790000     -29.66380000     -72.55100000
C      -43.72950000     -31.71000000     -67.90820000
H      -43.41900000     -32.28570000     -67.10400000
H      -43.40210000     -30.64010000     -67.68260000
S      -44.46660000     -30.30950000     -73.68940000
S      -45.63790000     -31.60460000     -67.87680000
C      -45.01520000     -32.04040000     -74.06730000
H      -45.68850000     -31.96480000     -74.96590000
H      -44.16730000     -32.68490000     -74.31110000
C      -45.95370000     -33.05500000     -68.88620000
H      -46.01790000     -33.97380000     -68.25240000
H      -45.08720000     -33.27300000     -69.57670000
C      -47.25320000     -32.96790000     -69.78740000
H      -48.18250000     -32.81790000     -69.20870000
H      -47.20080000     -32.05620000     -70.42040000
C      -45.77150000     -32.59660000     -72.85240000
H      -46.69980000     -32.00150000     -72.78620000
H      -45.17860000     -32.31780000     -71.97820000
C      -45.96120000     -34.12100000     -72.86590000
C      -45.56490000     -34.98720000     -73.88470000
C      -46.75190000     -34.70740000     -71.81670000
H      -44.99620000     -34.80260000     -74.79630000
C      -47.04450000     -36.04940000     -72.12550000
C      -47.34890000     -34.17660000     -70.61620000
C      -48.12540000     -35.21080000     -70.10620000
S      -46.34380000     -36.55190000     -73.66320000
S      -48.22070000     -36.75150000     -70.99680000
H      -48.59950000     -35.08450000     -69.21240000
