40
Properties=species:S:1:pos:R:3 #=T CELL(abcABC):=T 1.889726e+02=T 90.00000=T Traj:=T positionsangstrom=T Step:=T 0=T Bead:=T pbc="F F F"
C      -43.68090000     -31.57860000     -72.23510000
C      -42.98560000     -32.77180000     -72.04040000
C      -42.99490000     -33.39600000     -70.79550000
C      -43.58050000     -32.76970000     -69.71440000
C      -44.24850000     -31.53420000     -69.87020000
C      -44.32240000     -30.95770000     -71.14340000
H      -43.79500000     -31.14200000     -73.30480000
H      -42.44100000     -34.32920000     -70.57740000
H      -44.49290000     -30.89380000     -69.06690000
H      -44.84830000     -30.01210000     -71.27770000
C      -43.24890000     -33.40520000     -68.40600000
H      -42.91850000     -32.58870000     -67.68360000
H      -42.44560000     -34.17400000     -68.54780000
C      -42.31190000     -33.40890000     -73.22090000
H      -41.53310000     -32.81800000     -73.62750000
H      -41.84810000     -34.37910000     -73.01690000
S      -44.60080000     -34.29630000     -67.50930000
S      -43.46120000     -33.47760000     -74.66510000
C      -45.05050000     -35.75310000     -68.60240000
H      -44.27600000     -36.53990000     -68.54360000
H      -45.82340000     -36.17030000     -68.01060000
C      -44.40840000     -35.00060000     -74.48500000
H      -43.83540000     -35.93950000     -74.62010000
H      -45.08710000     -34.96540000     -75.33860000
C      -45.11270000     -35.04370000     -73.17810000
H      -45.46330000     -36.07280000     -73.06800000
H      -44.34920000     -34.92570000     -72.40000000
C      -45.42530000     -35.48250000     -69.98680000
H      -45.70390000     -36.42400000     -70.55840000
H      -44.60290000     -35.18660000     -70.61120000
C      -46.58310000     -34.44150000     -70.23310000
C      -47.49560000     -33.87240000     -69.31420000
C      -46.80920000     -33.77370000     -71.54680000
H      -47.75170000     -34.16800000     -68.25570000
C      -47.73890000     -32.73010000     -71.58880000
C      -46.18790000     -34.00320000     -72.87990000
C      -46.58360000     -33.05370000     -73.77900000
S      -48.47750000     -32.52690000     -69.97980000
S      -47.78730000     -32.03630000     -73.17830000
H      -46.29790000     -32.88290000     -74.83220000
