40
Properties=species:S:1:pos:R:3 #=T CELL(abcABC):=T 1.889726e+02=T 90.00000=T Traj:=T positionsangstrom=T Step:=T 0=T Bead:=T pbc="F F F"
C      -43.92390000     -31.57030000     -72.04300000
C      -43.18560000     -32.73740000     -72.07160000
C      -42.83880000     -33.31140000     -70.80020000
C      -43.31880000     -32.77810000     -69.60460000
C      -44.02140000     -31.57490000     -69.61350000
C      -44.30090000     -30.94960000     -70.83720000
H      -44.38260000     -31.17770000     -72.98460000
H      -42.25550000     -34.21060000     -70.71680000
H      -44.52990000     -31.19500000     -68.69770000
H      -44.82370000     -30.02520000     -70.81630000
C      -43.11560000     -33.48160000     -68.24920000
H      -42.75090000     -32.63830000     -67.68690000
H      -42.35700000     -34.20630000     -68.12370000
C      -42.57790000     -33.35130000     -73.33500000
H      -41.62800000     -32.74110000     -73.61860000
H      -42.26220000     -34.31440000     -72.94750000
S      -44.68150000     -34.12050000     -67.50050000
S      -43.50480000     -33.63790000     -74.92250000
C      -45.22340000     -35.61390000     -68.35860000
H      -44.46620000     -36.40220000     -68.21490000
H      -46.20540000     -35.79920000     -67.92070000
C      -44.47100000     -35.12730000     -74.51470000
H      -43.81050000     -35.96590000     -74.47000000
H      -45.02470000     -35.34860000     -75.44190000
C      -45.21260000     -35.11180000     -73.22490000
H      -45.57550000     -36.11720000     -73.06100000
H      -44.43350000     -35.15690000     -72.39560000
C      -45.46600000     -35.44460000     -69.79390000
H      -45.75170000     -36.46330000     -70.12820000
H      -44.48630000     -35.17390000     -70.21060000
C      -46.51760000     -34.41950000     -70.26920000
C      -47.43900000     -33.85300000     -69.44250000
C      -46.69360000     -33.80620000     -71.58200000
H      -47.72950000     -34.14680000     -68.42120000
C      -47.53160000     -32.72740000     -71.58290000
C      -46.12390000     -34.01610000     -72.87330000
C      -46.48590000     -33.11660000     -73.79270000
S      -48.57750000     -32.62910000     -70.21430000
S      -47.65090000     -31.92760000     -73.16560000
H      -46.07450000     -33.05940000     -74.80480000
