40
Properties=species:S:1:pos:R:3 #=T CELL(abcABC):=T 1.889726e+02=T 90.00000=T Traj:=T positionsangstrom=T Step:=T 0=T Bead:=T pbc="F F F"
C      -44.07680000     -31.63290000     -72.03470000
C      -43.13910000     -32.68900000     -72.02870000
C      -42.82410000     -33.30990000     -70.83810000
C      -43.27170000     -32.83550000     -69.62870000
C      -44.26600000     -31.83400000     -69.63200000
C      -44.66080000     -31.20610000     -70.80660000
H      -44.24440000     -31.06200000     -73.01120000
H      -42.02980000     -34.03010000     -70.86580000
H      -44.69770000     -31.59270000     -68.71110000
H      -45.48520000     -30.45590000     -70.76370000
C      -42.98510000     -33.52660000     -68.39300000
H      -42.50870000     -33.02400000     -67.53680000
H      -42.33360000     -34.40690000     -68.68610000
C      -42.37950000     -33.25720000     -73.23880000
H      -41.38360000     -32.73720000     -73.19760000
H      -42.07440000     -34.30680000     -73.05100000
S      -44.49000000     -34.23370000     -67.50790000
S      -43.03580000     -33.10840000     -74.96770000
C      -45.02670000     -35.71050000     -68.55540000
H      -44.32390000     -36.45410000     -68.26740000
H      -45.92770000     -36.08940000     -68.05710000
C      -44.42670000     -34.43460000     -74.85270000
H      -43.80270000     -35.28590000     -74.92720000
H      -45.11510000     -34.25730000     -75.63280000
C      -45.22910000     -34.86040000     -73.49570000
H      -45.71740000     -35.80470000     -73.79300000
H      -44.46180000     -35.10270000     -72.78700000
C      -45.31260000     -35.52240000     -70.07370000
H      -45.75160000     -36.50200000     -70.50830000
H      -44.36730000     -35.36020000     -70.65380000
C      -46.35730000     -34.45530000     -70.34350000
C      -47.12680000     -33.94880000     -69.33500000
C      -46.69630000     -33.74720000     -71.61020000
H      -47.18620000     -34.23040000     -68.26900000
C      -47.71270000     -32.83890000     -71.46000000
C      -46.27110000     -33.85150000     -72.97510000
C      -47.13640000     -33.11080000     -73.80530000
S      -48.37100000     -32.81440000     -69.85070000
S      -48.35510000     -32.25580000     -72.96380000
H      -46.94320000     -32.95830000     -74.93510000
