40
Properties=species:S:1:pos:R:3 #=T CELL(abcABC):=T 1.889726e+02=T 90.00000=T Traj:=T positionsangstrom=T Step:=T 0=T Bead:=T pbc="F F F"
C      -42.93290000     -33.14110000     -69.88070000
C      -43.27920000     -31.75270000     -69.69360000
C      -43.17810000     -30.87990000     -70.79310000
C      -42.67180000     -31.42290000     -72.02960000
C      -42.14280000     -32.75090000     -72.11960000
C      -42.35730000     -33.62440000     -71.07370000
H      -43.02440000     -33.78440000     -68.96020000
H      -43.56490000     -29.86240000     -70.75620000
H      -41.68300000     -33.07440000     -73.02360000
H      -42.07330000     -34.75270000     -71.10510000
C      -42.68270000     -30.54930000     -73.31200000
H      -42.12650000     -31.11410000     -74.10680000
H      -42.32260000     -29.52840000     -73.19940000
C      -43.84420000     -31.32000000     -68.32720000
H      -43.40000000     -31.95560000     -67.54330000
H      -43.54360000     -30.33810000     -68.14560000
S      -44.44560000     -30.42520000     -73.83270000
S      -45.68740000     -31.15890000     -68.38040000
C      -45.00190000     -32.28570000     -73.90080000
H      -45.73550000     -32.40720000     -74.73000000
H      -44.16300000     -32.93720000     -74.20360000
C      -46.43580000     -32.80310000     -68.49850000
H      -46.95920000     -32.84130000     -67.53930000
H      -45.58270000     -33.49560000     -68.62000000
C      -47.36400000     -33.03840000     -69.80100000
H      -48.36370000     -32.58260000     -69.54570000
H      -46.93810000     -32.40300000     -70.53000000
C      -45.71120000     -32.79000000     -72.59800000
H      -46.67270000     -32.21940000     -72.39390000
H      -45.03160000     -32.50960000     -71.79280000
C      -46.04750000     -34.27330000     -72.58160000
C      -45.65760000     -35.20150000     -73.58160000
C      -46.79780000     -34.91310000     -71.56140000
H      -45.37690000     -34.98310000     -74.56690000
C      -46.90610000     -36.24570000     -71.78480000
C      -47.34100000     -34.50550000     -70.30720000
C      -47.85740000     -35.52280000     -69.57960000
S      -46.45510000     -36.80700000     -73.38010000
S      -47.71510000     -37.03760000     -70.45960000
H      -48.37390000     -35.44230000     -68.68530000
