40
Properties=species:S:1:pos:R:3 #=T CELL(abcABC):=T 1.889726e+02=T 90.00000=T Traj:=T positionsangstrom=T Step:=T 0=T Bead:=T pbc="F F F"
C      -42.70190000     -33.31140000     -69.50440000
C      -43.21830000     -32.06340000     -69.27010000
C      -43.34790000     -31.21460000     -70.34570000
C      -42.94320000     -31.55470000     -71.61140000
C      -42.48560000     -32.85540000     -71.81570000
C      -42.38880000     -33.74090000     -70.76890000
H      -42.54130000     -34.03660000     -68.68540000
H      -43.88630000     -30.26270000     -70.23960000
H      -42.09770000     -33.12420000     -72.78140000
H      -41.83540000     -34.69940000     -70.96640000
C      -42.85340000     -30.50980000     -72.72070000
H      -41.97330000     -30.73760000     -73.31340000
H      -42.59920000     -29.52190000     -72.27280000
C      -43.69080000     -31.64450000     -67.93430000
H      -43.32260000     -32.36260000     -67.21890000
H      -43.36070000     -30.60420000     -67.67830000
S      -44.35160000     -30.36100000     -73.86940000
S      -45.49350000     -31.70000000     -67.94300000
C      -44.78810000     -32.12730000     -74.11300000
H      -45.20300000     -32.21100000     -75.12150000
H      -43.84650000     -32.63970000     -74.11580000
C      -46.07430000     -33.25590000     -68.84760000
H      -46.54660000     -33.87670000     -68.14370000
H      -45.17070000     -33.70260000     -69.28490000
C      -47.16170000     -32.86720000     -69.92250000
H      -48.00610000     -32.50680000     -69.36520000
H      -46.83300000     -32.13430000     -70.65400000
C      -45.84740000     -32.50170000     -73.04030000
H      -46.80230000     -31.96840000     -73.23130000
H      -45.49510000     -32.12440000     -72.08090000
C      -46.12130000     -34.00760000     -72.98160000
C      -45.68180000     -34.95590000     -73.89080000
C      -46.97390000     -34.64160000     -71.87860000
H      -45.11950000     -34.76770000     -74.85560000
C      -47.08890000     -36.02880000     -72.03100000
C      -47.38920000     -34.19120000     -70.60010000
C      -48.06640000     -35.22170000     -69.97700000
S      -46.26000000     -36.64400000     -73.46010000
S      -48.02710000     -36.84110000     -70.85690000
H      -48.42610000     -35.11230000     -69.03190000
