40
Properties=species:S:1:pos:R:3 #=T CELL(abcABC):=T 1.889726e+02=T 90.00000=T Traj:=T positionsangstrom=T Step:=T 0=T Bead:=T pbc="F F F"
C      -43.13070000     -37.19570000     -71.70500000
C      -42.85350000     -35.83820000     -71.76320000
C      -43.50110000     -35.07260000     -72.73950000
C      -44.34010000     -35.60910000     -73.74160000
C      -44.68840000     -36.94640000     -73.62940000
C      -44.05060000     -37.72670000     -72.60610000
H      -42.72280000     -37.89840000     -70.97900000
H      -43.17760000     -33.96990000     -72.89170000
H      -45.10480000     -37.51390000     -74.45880000
H      -44.33520000     -38.79690000     -72.62400000
C      -44.81270000     -34.73150000     -74.88890000
H      -44.89430000     -35.30660000     -75.82710000
H      -44.06770000     -33.95850000     -75.02600000
C      -41.91420000     -35.08480000     -70.89670000
H      -40.94770000     -35.56740000     -70.95420000
H      -41.74890000     -34.12820000     -71.33650000
S      -46.52430000     -34.02510000     -74.76480000
S      -42.40900000     -35.00540000     -69.06350000
C      -46.23830000     -33.42690000     -73.01580000
H      -47.20260000     -33.46140000     -72.50210000
H      -45.72630000     -34.27740000     -72.63670000
C      -43.63990000     -33.62480000     -68.90670000
H      -42.98080000     -32.72370000     -69.18020000
H      -43.90240000     -33.56290000     -67.85610000
C      -44.83110000     -33.69890000     -69.86830000
H      -44.51430000     -33.63780000     -70.89570000
H      -45.32430000     -34.61890000     -69.77240000
C      -45.45430000     -32.11130000     -72.82710000
H      -45.11380000     -31.65720000     -73.77190000
H      -44.37820000     -32.28430000     -72.42930000
C      -46.15180000     -31.19420000     -71.82400000
C      -46.99820000     -30.19250000     -72.23160000
C      -46.34290000     -31.55130000     -70.41960000
H      -47.18040000     -29.93420000     -73.28350000
C      -47.30640000     -30.77470000     -69.83850000
C      -45.73040000     -32.50800000     -69.52420000
C      -46.31880000     -32.42200000     -68.30460000
S      -47.92860000     -29.55590000     -70.88680000
S      -47.57340000     -31.13980000     -68.14660000
H      -46.28730000     -33.14560000     -67.47250000
