40
Properties=species:S:1:pos:R:3 #=T CELL(abcABC):=T 1.889726e+02=T 90.00000=T Traj:=T positionsangstrom=T Step:=T 0=T Bead:=T pbc="F F F"
C      -42.86690000     -36.07800000     -68.79630000
C      -42.73210000     -34.75810000     -69.21500000
C      -42.37920000     -34.44810000     -70.55360000
C      -42.27160000     -35.50780000     -71.49190000
C      -42.28300000     -36.82140000     -71.04040000
C      -42.55310000     -37.08450000     -69.70750000
H      -43.24450000     -36.35880000     -67.84590000
H      -42.51110000     -33.42400000     -70.97520000
H      -42.45640000     -37.64660000     -71.75100000
H      -42.46840000     -38.12450000     -69.32050000
C      -41.95490000     -35.12370000     -72.93200000
H      -42.17420000     -35.84520000     -73.71830000
H      -40.84590000     -35.03800000     -72.96120000
C      -42.90190000     -33.63880000     -68.15480000
H      -43.62610000     -33.88750000     -67.41730000
H      -41.92030000     -33.43370000     -67.71240000
S      -42.56330000     -33.49950000     -73.47620000
S      -43.38470000     -31.98660000     -68.87950000
C      -44.34770000     -33.85390000     -73.22710000
H      -44.73600000     -34.44320000     -74.08130000
H      -44.40720000     -34.49680000     -72.29060000
C      -45.06150000     -32.55290000     -69.46890000
H      -45.53890000     -33.03760000     -68.65670000
H      -45.02090000     -33.26490000     -70.27130000
C      -45.95080000     -31.32540000     -70.01900000
H      -46.09990000     -30.64070000     -69.21880000
H      -45.37910000     -30.78570000     -70.85260000
C      -45.18130000     -32.59440000     -73.12180000
H      -45.02520000     -31.89830000     -73.92500000
H      -44.85830000     -32.05500000     -72.22300000
C      -46.73040000     -32.76980000     -73.02670000
C      -47.51720000     -33.36760000     -74.00160000
C      -47.51370000     -32.33560000     -71.91290000
H      -47.15940000     -33.84410000     -74.86680000
C      -48.86900000     -32.39860000     -72.18020000
C      -47.29170000     -31.76690000     -70.57890000
C      -48.44890000     -31.53540000     -69.92760000
S      -49.22660000     -33.11510000     -73.69210000
S      -49.91570000     -32.00450000     -70.85600000
H      -48.56230000     -31.07440000     -68.93020000
