40
Properties=species:S:1:pos:R:3 #=T CELL(abcABC):=T 1.889726e+02=T 90.00000=T Traj:=T positionsangstrom=T Step:=T 0=T Bead:=T pbc="F F F"
C      -42.98860000     -36.10510000     -69.03940000
C      -42.72590000     -34.79100000     -69.41670000
C      -42.38260000     -34.55610000     -70.74170000
C      -42.35080000     -35.61320000     -71.68300000
C      -42.52450000     -36.93990000     -71.26080000
C      -42.81430000     -37.14420000     -69.93240000
H      -43.41330000     -36.38580000     -68.00160000
H      -42.37420000     -33.56720000     -71.17620000
H      -42.71630000     -37.74950000     -72.01210000
H      -43.07680000     -38.12740000     -69.55100000
C      -42.11930000     -35.47580000     -73.12030000
H      -42.66730000     -36.21220000     -73.75650000
H      -41.08860000     -35.62020000     -73.49480000
C      -42.93310000     -33.68200000     -68.32310000
H      -43.59570000     -34.01590000     -67.51110000
H      -41.94900000     -33.53330000     -67.79660000
S      -42.58100000     -33.68880000     -73.63200000
S      -43.51040000     -32.01830000     -68.71740000
C      -44.40200000     -33.90270000     -73.34250000
H      -44.85530000     -34.29670000     -74.25230000
H      -44.48900000     -34.71880000     -72.58890000
C      -45.26040000     -32.44900000     -69.09100000
H      -45.91550000     -32.57180000     -68.22650000
H      -45.18140000     -33.45200000     -69.48490000
C      -45.83850000     -31.27660000     -69.89680000
H      -45.92310000     -30.47830000     -69.14560000
H      -45.22590000     -31.02710000     -70.75450000
C      -45.01520000     -32.59630000     -72.82930000
H      -44.81780000     -31.73690000     -73.46220000
H      -44.50790000     -32.47140000     -71.91610000
C      -46.53110000     -32.71260000     -72.78980000
C      -47.25380000     -33.35490000     -73.78110000
C      -47.45150000     -32.17110000     -71.82710000
H      -46.76210000     -34.04210000     -74.48580000
C      -48.81250000     -32.26330000     -72.14140000
C      -47.23470000     -31.55600000     -70.49180000
C      -48.40240000     -31.17700000     -69.90690000
S      -49.00960000     -33.22790000     -73.60740000
S      -49.88660000     -31.69780000     -70.86500000
H      -48.52660000     -30.74850000     -68.92200000
