40
Properties=species:S:1:pos:R:3 #=T CELL(abcABC):=T 1.889726e+02=T 90.00000=T Traj:=T positionsangstrom=T Step:=T 0=T Bead:=T pbc="F F F"
C      -42.87440000     -36.10520000     -68.93720000
C      -42.65060000     -34.78520000     -69.32690000
C      -42.43590000     -34.51630000     -70.67470000
C      -42.32720000     -35.58930000     -71.57950000
C      -42.46540000     -36.95450000     -71.12610000
C      -42.85110000     -37.16950000     -69.79890000
H      -43.04460000     -36.43550000     -67.84980000
H      -42.33790000     -33.54170000     -71.06400000
H      -42.24990000     -37.76600000     -71.81890000
H      -42.97460000     -38.17860000     -69.42870000
C      -41.90670000     -35.23640000     -73.03110000
H      -42.20160000     -36.07920000     -73.67170000
H      -40.82280000     -35.07940000     -73.09360000
C      -42.64080000     -33.69210000     -68.30720000
H      -42.90820000     -34.10690000     -67.36850000
H      -41.65000000     -33.26260000     -68.25370000
S      -42.64640000     -33.73960000     -73.67840000
S      -43.63640000     -32.17350000     -68.86940000
C      -44.41040000     -33.90470000     -73.27450000
H      -45.03430000     -34.31330000     -74.12220000
H      -44.50530000     -34.54910000     -72.45310000
C      -45.41620000     -32.47930000     -69.29030000
H      -46.02150000     -32.92100000     -68.46480000
H      -45.24460000     -33.19530000     -70.07600000
C      -46.03400000     -31.09210000     -69.70730000
H      -46.23070000     -30.53430000     -68.76490000
H      -45.30100000     -30.59630000     -70.33330000
C      -44.98150000     -32.53570000     -72.95930000
H      -44.65570000     -31.88100000     -73.84760000
H      -44.68910000     -32.14720000     -71.95370000
C      -46.54390000     -32.62850000     -72.85950000
C      -47.27440000     -33.24260000     -73.84430000
C      -47.41660000     -32.20140000     -71.79740000
H      -46.88060000     -33.55100000     -74.82480000
C      -48.78720000     -32.49370000     -72.04110000
C      -47.24510000     -31.43880000     -70.55030000
C      -48.44040000     -31.13670000     -70.02310000
S      -48.99820000     -33.28220000     -73.55890000
S      -49.88740000     -31.71490000     -70.89820000
H      -48.62430000     -30.52040000     -69.11980000
