40
Properties=species:S:1:pos:R:3 #=T CELL(abcABC):=T 1.889726e+02=T 90.00000=T Traj:=T positionsangstrom=T Step:=T 0=T Bead:=T pbc="F F F"
C      -43.01070000     -34.17020000     -69.39970000
C      -43.33510000     -32.94040000     -68.68290000
C      -43.06840000     -31.70350000     -69.29140000
C      -42.39430000     -31.68200000     -70.50670000
C      -41.98720000     -32.89940000     -71.15820000
C      -42.25570000     -34.14510000     -70.57250000
H      -43.32690000     -35.07590000     -68.98520000
H      -43.40240000     -30.74640000     -68.73780000
H      -41.43490000     -32.89790000     -72.06660000
H      -41.94640000     -35.16600000     -70.87620000
C      -42.17420000     -30.42290000     -71.23770000
H      -41.38230000     -30.47960000     -72.02030000
H      -41.86950000     -29.55840000     -70.63470000
C      -44.13190000     -32.87630000     -67.39270000
H      -43.83690000     -33.52990000     -66.62680000
H      -44.12490000     -31.84940000     -67.00520000
S      -43.78400000     -29.94060000     -72.10950000
S      -45.99810000     -33.21990000     -67.52860000
C      -44.25180000     -31.47230000     -73.13090000
H      -44.90510000     -31.07860000     -73.96260000
H      -43.32960000     -31.86220000     -73.59060000
C      -46.30550000     -34.50050000     -68.90030000
H      -46.69490000     -35.40260000     -68.39290000
H      -45.42900000     -34.68790000     -69.47010000
C      -47.34400000     -33.84530000     -69.81130000
H      -48.29700000     -33.81570000     -69.24050000
H      -47.07470000     -32.73220000     -69.94900000
C      -45.16550000     -32.26490000     -72.20670000
H      -45.91250000     -31.56140000     -71.82520000
H      -44.67140000     -32.53300000     -71.30840000
C      -45.86190000     -33.32290000     -72.92390000
C      -45.69670000     -33.52830000     -74.34880000
C      -46.76870000     -34.33030000     -72.39390000
H      -45.28390000     -32.79010000     -75.00610000
C      -47.21500000     -35.17280000     -73.43160000
C      -47.48650000     -34.64130000     -71.16690000
C      -48.34640000     -35.66040000     -71.36580000
S      -46.61190000     -34.85560000     -75.04750000
S      -48.53330000     -36.28120000     -72.96920000
H      -48.96230000     -35.97530000     -70.51330000
