40
Properties=species:S:1:pos:R:3 #=T CELL(abcABC):=T 1.889726e+02=T 90.00000=T Traj:=T positionsangstrom=T Step:=T 0=T Bead:=T pbc="F F F"
C      -43.07480000     -34.22060000     -69.34670000
C      -43.51080000     -32.97540000     -68.72260000
C      -43.15570000     -31.76130000     -69.32820000
C      -42.43000000     -31.77890000     -70.51530000
C      -41.94610000     -32.97490000     -71.05640000
C      -42.29150000     -34.19760000     -70.48760000
H      -43.19560000     -35.21580000     -68.93120000
H      -43.49370000     -30.88490000     -68.78920000
H      -41.30760000     -32.95150000     -71.97900000
H      -41.83510000     -35.16190000     -70.80430000
C      -41.98960000     -30.51330000     -71.19010000
H      -41.26850000     -30.76030000     -71.95540000
H      -41.58520000     -29.71680000     -70.53010000
C      -44.14970000     -33.09720000     -67.39420000
H      -43.56230000     -33.84190000     -66.78020000
H      -44.01660000     -32.11090000     -66.87170000
S      -43.52840000     -29.80020000     -72.01830000
S      -46.03500000     -33.39480000     -67.45730000
C      -44.18900000     -31.30960000     -72.77510000
H      -44.32920000     -31.08150000     -73.78420000
H      -43.35720000     -32.03120000     -72.74200000
C      -46.23120000     -34.36250000     -69.02920000
H      -46.30500000     -35.47340000     -68.85440000
H      -45.23670000     -34.34110000     -69.54830000
C      -47.30980000     -33.77530000     -69.92870000
H      -48.25160000     -33.62760000     -69.37270000
H      -47.05300000     -32.74970000     -70.17570000
C      -45.42520000     -32.08220000     -72.17470000
H      -46.26530000     -31.37420000     -72.09770000
H      -45.19420000     -32.45000000     -71.14240000
C      -45.90860000     -33.30870000     -72.99170000
C      -45.66200000     -33.52120000     -74.35500000
C      -46.90470000     -34.27250000     -72.55450000
H      -45.05110000     -32.88770000     -74.99690000
C      -47.44200000     -35.06630000     -73.58260000
C      -47.53280000     -34.59120000     -71.31180000
C      -48.36740000     -35.64710000     -71.34460000
S      -46.65170000     -34.78970000     -75.10230000
S      -48.49470000     -36.32800000     -73.02860000
H      -48.89570000     -36.05630000     -70.40200000
