40
Properties=species:S:1:pos:R:3 #=T CELL(abcABC):=T 1.889726e+02=T 90.00000=T Traj:=T positionsangstrom=T Step:=T 0=T Bead:=T pbc="F F F"
C      -41.96510000     -33.49930000     -68.96150000
C      -43.04220000     -32.58890000     -68.94020000
C      -43.10960000     -31.56650000     -69.88260000
C      -42.23290000     -31.47420000     -70.97790000
C      -41.34500000     -32.57680000     -71.08560000
C      -41.22360000     -33.58300000     -70.09850000
H      -41.85950000     -34.30860000     -68.21350000
H      -43.83460000     -30.80770000     -69.69220000
H      -40.65720000     -32.67930000     -71.97900000
H      -40.39710000     -34.25970000     -70.11400000
C      -42.31000000     -30.36690000     -71.99290000
H      -41.59410000     -30.47570000     -72.82380000
H      -42.00670000     -29.44080000     -71.49680000
C      -44.07390000     -32.56460000     -67.84370000
H      -44.17900000     -33.57340000     -67.24020000
H      -43.80410000     -31.82360000     -67.18630000
S      -44.01350000     -30.07830000     -72.72900000
S      -45.80240000     -32.11890000     -68.35680000
C      -44.47790000     -31.82450000     -73.10780000
H      -44.70130000     -31.86660000     -74.16910000
H      -43.60620000     -32.43060000     -72.84500000
C      -46.23920000     -33.66020000     -69.11900000
H      -46.33670000     -34.43620000     -68.32120000
H      -45.52460000     -34.01330000     -69.90920000
C      -47.61980000     -33.63600000     -69.84070000
H      -48.44370000     -33.60000000     -69.16880000
H      -47.64270000     -32.72150000     -70.39590000
C      -45.68980000     -32.37760000     -72.33140000
H      -46.53670000     -31.64730000     -72.20400000
H      -45.32640000     -32.47930000     -71.27960000
C      -46.18940000     -33.72590000     -72.80050000
C      -45.96840000     -34.21030000     -74.06720000
C      -47.07040000     -34.66060000     -72.14020000
H      -45.38220000     -33.69100000     -74.81210000
C      -47.42730000     -35.77260000     -72.90170000
C      -47.74960000     -34.71660000     -70.88510000
C      -48.50830000     -35.85780000     -70.74010000
S      -46.81860000     -35.64790000     -74.50360000
S      -48.53350000     -36.84050000     -72.09700000
H      -49.02870000     -36.05130000     -69.80480000
