40
Properties=species:S:1:pos:R:3 #=T CELL(abcABC):=T 1.889726e+02=T 90.00000=T Traj:=T positionsangstrom=T Step:=T 0=T Bead:=T pbc="F F F"
C      -43.19680000     -36.96630000     -71.74420000
C      -42.87100000     -35.61340000     -71.86870000
C      -43.32170000     -34.90290000     -72.95700000
C      -44.26450000     -35.55250000     -73.84350000
C      -44.48910000     -36.98130000     -73.75410000
C      -43.91000000     -37.65590000     -72.67290000
H      -42.84160000     -37.45500000     -70.80230000
H      -43.09990000     -33.84040000     -73.05950000
H      -45.17400000     -37.49260000     -74.44360000
H      -44.02730000     -38.72510000     -72.56130000
C      -44.79720000     -34.81380000     -75.07860000
H      -45.10880000     -35.47900000     -75.93150000
H      -44.09020000     -34.09130000     -75.63230000
C      -41.89810000     -34.98390000     -70.87190000
H      -40.97120000     -35.57370000     -70.73020000
H      -41.80010000     -33.91950000     -71.09990000
S      -46.33460000     -33.89630000     -74.75860000
S      -42.51350000     -35.03190000     -69.09280000
C      -46.43390000     -33.35050000     -73.02290000
H      -47.45920000     -32.94700000     -72.91350000
H      -46.18250000     -34.13090000     -72.30510000
C      -43.64760000     -33.62270000     -68.97440000
H      -43.16330000     -32.65000000     -69.26250000
H      -44.01360000     -33.53320000     -67.96620000
C      -44.94200000     -33.85430000     -69.82450000
H      -44.76420000     -33.96740000     -70.89130000
H      -45.35840000     -34.82600000     -69.46810000
C      -45.50760000     -32.16630000     -72.74490000
H      -45.46580000     -31.82440000     -73.73370000
H      -44.55160000     -32.52600000     -72.31140000
C      -46.15760000     -31.27490000     -71.73510000
C      -46.78920000     -30.06800000     -72.07040000
C      -46.32920000     -31.65210000     -70.33660000
H      -46.54990000     -29.55170000     -73.03760000
C      -47.30530000     -30.84200000     -69.75900000
C      -45.98140000     -32.84000000     -69.51940000
C      -46.58820000     -32.69800000     -68.30090000
S      -47.89140000     -29.53200000     -70.80260000
S      -47.59890000     -31.23020000     -68.08540000
H      -46.56160000     -33.51110000     -67.48910000
