40
Properties=species:S:1:pos:R:3 #=T CELL(abcABC):=T 1.889726e+02=T 90.00000=T Traj:=T positionsangstrom=T Step:=T 0=T Bead:=T pbc="F F F"
C      -42.12080000     -33.37620000     -69.07780000
C      -43.00690000     -32.35130000     -68.93140000
C      -43.12800000     -31.30980000     -69.88190000
C      -42.20340000     -31.36790000     -70.95540000
C      -41.29610000     -32.37500000     -71.02530000
C      -41.19410000     -33.36800000     -70.08190000
H      -42.06290000     -34.19260000     -68.31930000
H      -43.87160000     -30.55410000     -69.88730000
H      -40.64210000     -32.53820000     -71.88780000
H      -40.57260000     -34.22240000     -70.17300000
C      -42.24550000     -30.35370000     -72.07450000
H      -41.42960000     -30.53320000     -72.77020000
H      -42.17790000     -29.33850000     -71.63440000
C      -43.97140000     -32.33920000     -67.74240000
H      -44.03330000     -33.19280000     -67.10600000
H      -43.82040000     -31.50520000     -67.04040000
S      -43.93960000     -30.32520000     -72.95430000
S      -45.71460000     -32.08050000     -68.30540000
C      -44.44270000     -32.05840000     -73.34680000
H      -44.83920000     -31.90750000     -74.35170000
H      -43.64810000     -32.81050000     -73.40200000
C      -46.20420000     -33.82320000     -69.06940000
H      -46.26800000     -34.55640000     -68.24000000
H      -45.45010000     -34.06470000     -69.77780000
C      -47.56660000     -33.61060000     -69.70660000
H      -48.36090000     -33.64570000     -68.87860000
H      -47.61160000     -32.62520000     -70.22470000
C      -45.59250000     -32.48520000     -72.38200000
H      -46.29670000     -31.76150000     -72.18070000
H      -45.14440000     -32.73530000     -71.36460000
C      -46.31490000     -33.70470000     -72.90630000
C      -46.15310000     -34.22930000     -74.18450000
C      -47.25810000     -34.61180000     -72.17610000
H      -45.49940000     -33.78300000     -74.88570000
C      -47.57810000     -35.78680000     -72.85160000
C      -47.77640000     -34.64800000     -70.81710000
C      -48.63430000     -35.72260000     -70.55630000
S      -46.85610000     -35.78620000     -74.44850000
S      -48.49050000     -36.93560000     -71.95660000
H      -49.15200000     -35.87470000     -69.60960000
