40
Properties=species:S:1:pos:R:3 #=T CELL(abcABC):=T 1.889726e+02=T 90.00000=T Traj:=T positionsangstrom=T Step:=T 0=T Bead:=T pbc="F F F"
C      -42.10400000     -33.80940000     -68.97660000
C      -43.03740000     -32.74040000     -68.79350000
C      -43.03350000     -31.67870000     -69.69200000
C      -42.22440000     -31.69100000     -70.84390000
C      -41.45540000     -32.84880000     -71.11410000
C      -41.27380000     -33.78590000     -70.10570000
H      -42.03980000     -34.54840000     -68.18710000
H      -43.70270000     -30.85370000     -69.58020000
H      -40.85500000     -32.89360000     -71.97550000
H      -40.73940000     -34.70170000     -70.44710000
C      -42.37150000     -30.54280000     -71.88550000
H      -41.82540000     -30.83370000     -72.81030000
H      -41.92670000     -29.59090000     -71.53120000
C      -43.97140000     -32.74090000     -67.62400000
H      -43.85620000     -33.58580000     -66.97580000
H      -43.90430000     -31.94870000     -66.80700000
S      -44.08050000     -29.94350000     -72.34560000
S      -45.80990000     -32.50280000     -68.01080000
C      -44.78000000     -31.32380000     -73.24740000
H      -45.26010000     -30.98070000     -74.17620000
H      -43.93080000     -31.89290000     -73.58430000
C      -46.19660000     -33.85370000     -69.21450000
H      -46.27910000     -34.84870000     -68.63440000
H      -45.35600000     -33.82720000     -69.91750000
C      -47.50340000     -33.52470000     -69.95010000
H      -48.36040000     -33.46690000     -69.33180000
H      -47.32590000     -32.51310000     -70.39060000
C      -45.72810000     -32.20160000     -72.45830000
H      -46.66670000     -31.65850000     -72.24910000
H      -45.21870000     -32.44170000     -71.49780000
C      -46.14470000     -33.53870000     -73.06950000
C      -45.92020000     -34.00090000     -74.34910000
C      -47.06830000     -34.41940000     -72.40390000
H      -45.27780000     -33.58510000     -75.13720000
C      -47.42230000     -35.57780000     -73.12040000
C      -47.75060000     -34.51970000     -71.07840000
C      -48.56060000     -35.58860000     -70.89150000
S      -46.62500000     -35.65580000     -74.63360000
S      -48.51400000     -36.69730000     -72.23410000
H      -49.12180000     -35.79710000     -69.99710000
