40
Properties=species:S:1:pos:R:3 #=T CELL(abcABC):=T 1.889726e+02=T 90.00000=T Traj:=T positionsangstrom=T Step:=T 0=T Bead:=T pbc="F F F"
C      -42.86190000     -35.00460000     -69.30490000
C      -43.49270000     -33.94860000     -68.60820000
C      -43.14490000     -32.63110000     -68.95920000
C      -42.30340000     -32.34310000     -70.12700000
C      -41.61500000     -33.45800000     -70.67030000
C      -41.91320000     -34.74300000     -70.28890000
H      -43.03240000     -36.10170000     -69.09060000
H      -43.54090000     -31.73390000     -68.47130000
H      -40.90530000     -33.30130000     -71.50970000
H      -41.30790000     -35.51830000     -70.68960000
C      -41.92610000     -30.95850000     -70.54450000
H      -41.24060000     -30.99180000     -71.35790000
H      -41.59840000     -30.36750000     -69.70540000
C      -44.42660000     -34.12400000     -67.44820000
H      -44.58010000     -35.21540000     -67.33860000
H      -44.08290000     -33.63290000     -66.54980000
S      -43.44200000     -29.95300000     -71.14750000
S      -45.97350000     -33.21570000     -67.97530000
C      -44.24610000     -31.15110000     -72.36580000
H      -44.55260000     -30.63240000     -73.32940000
H      -43.49130000     -31.81880000     -72.69710000
C      -46.37630000     -34.20220000     -69.49670000
H      -46.60440000     -35.28040000     -69.19480000
H      -45.47390000     -34.23310000     -70.05210000
C      -47.71690000     -33.70740000     -70.20100000
H      -48.56030000     -33.98330000     -69.55110000
H      -47.72090000     -32.60390000     -70.37790000
C      -45.44110000     -31.94750000     -71.86690000
H      -46.22820000     -31.27840000     -71.47270000
H      -45.07260000     -32.48320000     -70.97010000
C      -46.02690000     -32.87300000     -72.91410000
C      -45.66450000     -32.86900000     -74.24940000
C      -47.02550000     -33.89670000     -72.73150000
H      -44.96580000     -32.18530000     -74.76960000
C      -47.35310000     -34.63420000     -73.85930000
C      -47.81860000     -34.37220000     -71.61090000
C      -48.74590000     -35.33490000     -71.93390000
S      -46.46510000     -34.06150000     -75.27330000
S      -48.54000000     -35.91800000     -73.58920000
H      -49.56420000     -35.71170000     -71.40310000
