40
Properties=species:S:1:pos:R:3 #=T CELL(abcABC):=T 1.889726e+02=T 90.00000=T Traj:=T positionsangstrom=T Step:=T 0=T Bead:=T pbc="F F F"
C      -42.70120000     -34.98380000     -69.23080000
C      -43.34610000     -33.98790000     -68.51990000
C      -43.07930000     -32.65870000     -68.87240000
C      -42.29520000     -32.29310000     -69.97260000
C      -41.77870000     -33.34540000     -70.79570000
C      -41.93820000     -34.65220000     -70.32910000
H      -42.71570000     -36.03840000     -68.97530000
H      -43.56260000     -31.84550000     -68.28940000
H      -41.18510000     -33.27060000     -71.71780000
H      -41.55490000     -35.39790000     -70.98410000
C      -41.95900000     -30.84290000     -70.35680000
H      -41.08990000     -30.87990000     -71.02290000
H      -41.62190000     -30.25190000     -69.46860000
C      -44.52830000     -34.28350000     -67.54180000
H      -44.59170000     -35.40580000     -67.37890000
H      -44.33700000     -33.78460000     -66.57470000
S      -43.33750000     -30.04310000     -71.29910000
S      -46.11550000     -33.38590000     -68.05960000
C      -44.12380000     -31.28040000     -72.32170000
H      -44.37850000     -30.62870000     -73.20640000
H      -43.38380000     -31.96100000     -72.70700000
C      -46.69410000     -34.52380000     -69.33390000
H      -46.94170000     -35.49680000     -68.93010000
H      -45.87570000     -34.72110000     -70.02790000
C      -47.86650000     -33.88980000     -70.15760000
H      -48.76880000     -34.23020000     -69.66950000
H      -47.85570000     -32.83650000     -70.11500000
C      -45.32490000     -31.97320000     -71.80460000
H      -46.04450000     -31.18840000     -71.48840000
H      -45.14310000     -32.60170000     -70.98920000
C      -45.94100000     -32.80960000     -72.87010000
C      -45.46130000     -32.89260000     -74.16770000
C      -47.02960000     -33.81290000     -72.65910000
H      -44.58710000     -32.36510000     -74.55300000
C      -47.35120000     -34.40670000     -73.88690000
C      -47.83790000     -34.37680000     -71.57580000
C      -48.69020000     -35.30890000     -72.00280000
S      -46.38690000     -34.02170000     -75.23200000
S      -48.62710000     -35.59390000     -73.72190000
H      -49.22100000     -35.99580000     -71.33150000
