40
Properties=species:S:1:pos:R:3 #=T CELL(abcABC):=T 1.889726e+02=T 90.00000=T Traj:=T positionsangstrom=T Step:=T 0=T Bead:=T pbc="F F F"
C      -42.66550000     -34.77090000     -69.08880000
C      -43.38160000     -33.72500000     -68.52330000
C      -43.34610000     -32.43400000     -69.18600000
C      -42.45760000     -32.21840000     -70.22450000
C      -41.79790000     -33.30880000     -70.86350000
C      -41.90850000     -34.58860000     -70.27990000
H      -42.63150000     -35.68480000     -68.50950000
H      -43.80520000     -31.54840000     -68.77540000
H      -41.14030000     -33.13580000     -71.67670000
H      -41.28910000     -35.40200000     -70.56720000
C      -42.21580000     -30.84520000     -70.79580000
H      -41.41160000     -30.90770000     -71.51530000
H      -41.86780000     -30.18320000     -70.01590000
C      -44.35410000     -33.89180000     -67.28680000
H      -44.36480000     -34.88380000     -66.90130000
H      -44.00230000     -33.28370000     -66.45980000
S      -43.64890000     -29.90040000     -71.59090000
S      -46.13200000     -33.32240000     -67.74410000
C      -44.31290000     -30.98760000     -72.93260000
H      -44.40140000     -30.37710000     -73.88820000
H      -43.67890000     -31.82900000     -73.08750000
C      -46.22520000     -34.22510000     -69.33340000
H      -46.36450000     -35.30590000     -69.22890000
H      -45.31440000     -34.10980000     -69.85170000
C      -47.38850000     -33.67630000     -70.04810000
H      -48.36900000     -33.83670000     -69.57600000
H      -47.27730000     -32.57110000     -70.07940000
C      -45.59740000     -31.65220000     -72.33520000
H      -46.44020000     -30.90830000     -72.15550000
H      -45.32610000     -32.02870000     -71.38080000
C      -46.09990000     -32.84050000     -73.10590000
C      -45.79580000     -33.00910000     -74.46010000
C      -46.93340000     -33.95760000     -72.67730000
H      -45.18850000     -32.38670000     -75.14870000
C      -47.17600000     -34.88560000     -73.66680000
C      -47.51360000     -34.36520000     -71.43430000
C      -48.35400000     -35.40950000     -71.49610000
S      -46.52450000     -34.44060000     -75.18470000
S      -48.35630000     -36.09940000     -73.22890000
H      -48.82330000     -35.91230000     -70.59170000
