40
Properties=species:S:1:pos:R:3 #=T CELL(abcABC):=T 1.889726e+02=T 90.00000=T Traj:=T positionsangstrom=T Step:=T 0=T Bead:=T pbc="F F F"
C      -43.23750000     -36.89680000     -71.67450000
C      -42.77010000     -35.60460000     -71.95770000
C      -43.23590000     -34.93170000     -73.11010000
C      -44.09850000     -35.55540000     -74.02630000
C      -44.47570000     -36.97000000     -73.80540000
C      -43.93810000     -37.54230000     -72.65000000
H      -42.89530000     -37.45070000     -70.84290000
H      -42.88740000     -33.97370000     -73.23760000
H      -45.20630000     -37.44170000     -74.50270000
H      -44.22780000     -38.54090000     -72.45160000
C      -44.56600000     -34.83690000     -75.20490000
H      -44.60130000     -35.43030000     -76.07670000
H      -43.89150000     -34.01630000     -75.27140000
C      -41.96080000     -34.88910000     -70.96730000
H      -40.92430000     -35.27710000     -71.03610000
H      -41.80340000     -33.83710000     -71.28170000
S      -46.23860000     -33.98340000     -74.96630000
S      -42.53440000     -35.05470000     -69.23610000
C      -46.35390000     -33.26160000     -73.24020000
H      -47.42420000     -33.06750000     -73.13420000
H      -46.32760000     -34.14830000     -72.61860000
C      -43.68440000     -33.62330000     -69.09650000
H      -43.26640000     -32.79140000     -69.57650000
H      -43.70440000     -33.38310000     -68.02150000
C      -45.04880000     -33.95650000     -69.61390000
H      -44.94500000     -34.06680000     -70.69490000
H      -45.40570000     -34.94720000     -69.23200000
C      -45.53320000     -32.07020000     -72.85530000
H      -45.40980000     -31.22280000     -73.57080000
H      -44.57160000     -32.35390000     -72.46800000
C      -46.29580000     -31.35620000     -71.62120000
C      -46.82420000     -30.05600000     -71.89890000
C      -46.48470000     -31.75470000     -70.21610000
H      -46.69920000     -29.63300000     -72.89370000
C      -47.33600000     -30.84250000     -69.59570000
C      -46.11030000     -32.88800000     -69.34480000
C      -46.65020000     -32.68580000     -68.09380000
S      -47.67120000     -29.34240000     -70.54530000
S      -47.84320000     -31.39250000     -68.01880000
H      -46.54330000     -33.23030000     -67.13290000
