40
Properties=species:S:1:pos:R:3 #=T CELL(abcABC):=T 1.889726e+02=T 90.00000=T Traj:=T positionsangstrom=T Step:=T 0=T Bead:=T pbc="F F F"
C      -47.72790000     -31.49880000     -68.12410000
C      -46.30580000     -31.65980000     -68.19780000
C      -45.48820000     -31.06130000     -69.13830000
C      -46.09440000     -30.27390000     -70.11390000
C      -47.48040000     -29.94430000     -70.00270000
C      -48.24330000     -30.59330000     -69.01470000
H      -48.28190000     -31.88820000     -67.28990000
H      -44.42100000     -31.22740000     -69.10520000
H      -47.82110000     -29.07750000     -70.61670000
H      -49.34590000     -30.43830000     -69.00600000
C      -45.16550000     -29.47760000     -71.09900000
H      -44.09090000     -29.70700000     -70.91000000
H      -45.31740000     -28.44110000     -71.03300000
C      -45.60930000     -32.55360000     -67.23050000
H      -44.55200000     -32.43330000     -67.22260000
H      -46.07200000     -32.47030000     -66.21620000
S      -45.48410000     -29.82250000     -72.88950000
S      -46.14180000     -34.33560000     -67.64580000
C      -45.51620000     -31.66070000     -72.84580000
H      -46.27530000     -31.91080000     -72.14360000
H      -45.88930000     -31.98980000     -73.78240000
C      -45.24880000     -34.84950000     -69.25190000
H      -45.06650000     -35.91570000     -69.02960000
H      -44.32020000     -34.32860000     -69.26310000
C      -46.07380000     -34.69240000     -70.54610000
H      -47.09890000     -35.04790000     -70.55170000
H      -46.07930000     -33.68110000     -70.83320000
C      -44.11830000     -32.41790000     -72.60440000
H      -44.02170000     -32.53380000     -71.53260000
H      -43.32130000     -31.75930000     -72.97520000
C      -44.06040000     -33.76400000     -73.28290000
C      -43.24210000     -33.96360000     -74.39700000
C      -44.62650000     -35.06630000     -72.84140000
H      -42.92230000     -33.09290000     -74.97980000
C      -44.22570000     -36.09140000     -73.65090000
C      -45.39760000     -35.53860000     -71.70520000
C      -45.45650000     -36.89790000     -71.71700000
S      -43.21780000     -35.58400000     -75.00270000
S      -44.51340000     -37.65280000     -73.01190000
H      -45.93490000     -37.50300000     -70.96490000
