40
Properties=species:S:1:pos:R:3 #=T CELL(abcABC):=T 1.889726e+02=T 90.00000=T Traj:=T positionsangstrom=T Step:=T 0=T Bead:=T pbc="F F F"
C      -47.51230000     -36.63600000     -72.67580000
C      -47.19530000     -36.40350000     -71.32510000
C      -45.79980000     -36.49930000     -70.97010000
C      -44.84100000     -36.55210000     -71.98960000
C      -45.22930000     -36.68600000     -73.36600000
C      -46.58590000     -36.75260000     -73.64500000
H      -48.54570000     -36.69630000     -72.96540000
H      -45.53070000     -36.11220000     -69.98080000
H      -44.45880000     -36.74580000     -74.19820000
H      -46.84090000     -36.90650000     -74.69890000
C      -43.39010000     -36.57870000     -71.52400000
H      -42.92740000     -37.52940000     -71.85060000
H      -43.35410000     -36.47240000     -70.38970000
C      -48.22920000     -36.06730000     -70.34630000
H      -48.96440000     -35.47300000     -70.85250000
H      -48.66590000     -37.03060000     -70.09750000
S      -42.26270000     -35.43440000     -72.38970000
S      -47.75090000     -34.94430000     -68.92310000
C      -42.86230000     -33.76010000     -71.70340000
H      -42.81950000     -33.71480000     -70.61150000
H      -42.09560000     -32.94570000     -71.89230000
C      -47.18880000     -33.55030000     -69.93430000
H      -48.07070000     -32.96430000     -70.33180000
H      -46.64230000     -33.92140000     -70.80540000
C      -46.18870000     -32.75640000     -69.14950000
H      -46.57960000     -32.37120000     -68.18450000
H      -45.29710000     -33.38040000     -68.91370000
C      -44.24580000     -33.36800000     -72.25770000
H      -44.95670000     -33.79420000     -71.56050000
H      -44.29140000     -33.71140000     -73.32350000
C      -44.46610000     -31.95760000     -72.27700000
C      -44.01460000     -31.17630000     -73.27400000
C      -44.99860000     -31.25850000     -71.14180000
H      -43.76600000     -31.44870000     -74.27850000
C      -44.94720000     -29.85570000     -71.37860000
C      -45.67380000     -31.50100000     -69.81020000
C      -45.71180000     -30.38900000     -69.01510000
S      -44.30730000     -29.49660000     -72.98850000
S      -45.44050000     -28.92740000     -70.00880000
H      -46.07630000     -30.30800000     -68.00140000
