40
Properties=species:S:1:pos:R:3 #=T CELL(abcABC):=T 1.889726e+02=T 90.00000=T Traj:=T positionsangstrom=T Step:=T 0=T Bead:=T pbc="F F F"
C      -42.64040000     -35.77920000     -69.55580000
C      -43.33880000     -34.74900000     -68.90070000
C      -43.13780000     -33.45920000     -69.42970000
C      -42.16640000     -33.19230000     -70.42690000
C      -41.40850000     -34.28710000     -71.02730000
C      -41.74640000     -35.57600000     -70.63520000
H      -42.81630000     -36.82130000     -69.33540000
H      -43.60250000     -32.61330000     -69.04760000
H      -40.67870000     -34.13950000     -71.74110000
H      -41.33460000     -36.46140000     -71.09900000
C      -41.86210000     -31.83020000     -70.92260000
H      -41.69940000     -31.87020000     -72.04220000
H      -40.91530000     -31.42390000     -70.52910000
C      -44.30020000     -35.06160000     -67.74050000
H      -44.44100000     -36.14690000     -67.63560000
H      -43.94320000     -34.58230000     -66.80000000
S      -43.08530000     -30.50590000     -70.48060000
S      -45.96890000     -34.12980000     -67.88140000
C      -44.42460000     -30.56790000     -71.68960000
H      -44.98420000     -29.67310000     -71.63220000
H      -43.96960000     -30.63010000     -72.66440000
C      -46.42470000     -34.52520000     -69.59120000
H      -46.58850000     -35.54050000     -69.71930000
H      -45.58600000     -34.31850000     -70.22710000
C      -47.60220000     -33.71530000     -70.08710000
H      -48.55850000     -33.87570000     -69.60770000
H      -47.40450000     -32.61700000     -69.98630000
C      -45.27910000     -31.85260000     -71.49280000
H      -46.03460000     -31.76860000     -70.68260000
H      -44.51600000     -32.58500000     -71.15990000
C      -46.00670000     -32.41660000     -72.76920000
C      -45.68100000     -32.00240000     -74.03000000
C      -47.07440000     -33.31660000     -72.61620000
H      -44.83530000     -31.36640000     -74.37620000
C      -47.56390000     -33.55810000     -73.92920000
C      -47.86080000     -33.99620000     -71.55450000
C      -48.93980000     -34.69770000     -72.04920000
S      -46.65810000     -32.87150000     -75.26100000
S      -48.97870000     -34.60240000     -73.85130000
H      -49.64540000     -35.27490000     -71.40450000
