40
Properties=species:S:1:pos:R:3 #=T CELL(abcABC):=T 1.889726e+02=T 90.00000=T Traj:=T positionsangstrom=T Step:=T 0=T Bead:=T pbc="F F F"
C      -44.95010000     -30.76460000     -70.41080000
C      -44.11420000     -31.07790000     -71.48870000
C      -43.12130000     -32.08340000     -71.40950000
C      -42.85670000     -32.70070000     -70.17290000
C      -43.64150000     -32.26830000     -69.04290000
C      -44.61290000     -31.27370000     -69.17190000
H      -45.63370000     -29.94930000     -70.48030000
H      -42.50830000     -32.21930000     -72.28380000
H      -43.33080000     -32.65330000     -68.03990000
H      -45.09180000     -30.79870000     -68.21290000
C      -41.79060000     -33.72690000     -70.02280000
H      -41.10820000     -33.49110000     -69.29760000
H      -41.05360000     -33.75210000     -70.85160000
C      -44.08670000     -30.26080000     -72.78140000
H      -43.73420000     -29.22770000     -72.54470000
H      -43.39040000     -30.67550000     -73.58930000
S      -42.29270000     -35.52100000     -69.71950000
S      -45.85610000     -30.05570000     -73.53020000
C      -42.96490000     -36.21550000     -71.30910000
H      -42.06030000     -36.39340000     -71.87990000
H      -43.43930000     -37.19890000     -70.98360000
C      -46.06280000     -31.63970000     -74.49270000
H      -45.34650000     -31.62180000     -75.29750000
H      -47.03050000     -31.73910000     -74.87490000
C      -45.80920000     -32.91770000     -73.70650000
H      -45.75040000     -33.66850000     -74.53530000
H      -44.81980000     -33.00880000     -73.23530000
C      -44.06540000     -35.41780000     -72.03870000
H      -44.15170000     -35.71180000     -73.05860000
H      -43.80930000     -34.34850000     -72.03990000
C      -45.46540000     -35.41180000     -71.36260000
C      -45.79470000     -36.12120000     -70.25970000
C      -46.57490000     -34.46770000     -71.69670000
H      -45.14320000     -36.84150000     -69.76970000
C      -47.61680000     -34.60620000     -70.81630000
C      -46.79400000     -33.37910000     -72.62160000
C      -48.07110000     -32.88400000     -72.51420000
S      -47.35960000     -35.80580000     -69.58500000
S      -49.00930000     -33.68660000     -71.30490000
H      -48.52030000     -32.03140000     -72.92260000
