40
Properties=species:S:1:pos:R:3 #=T CELL(abcABC):=T 1.889726e+02=T 90.00000=T Traj:=T positionsangstrom=T Step:=T 0=T Bead:=T pbc="F F F"
C      -45.10200000     -31.00810000     -70.11410000
C      -44.21110000     -30.97720000     -71.22590000
C      -43.15380000     -31.90990000     -71.41750000
C      -42.91830000     -32.81710000     -70.36970000
C      -43.73630000     -32.92080000     -69.28380000
C      -44.80860000     -32.01930000     -69.11350000
H      -45.91080000     -30.37680000     -69.98060000
H      -42.56340000     -31.92550000     -72.39900000
H      -43.47520000     -33.57660000     -68.47450000
H      -45.38730000     -32.16470000     -68.20030000
C      -41.68770000     -33.81320000     -70.37640000
H      -41.03990000     -33.68360000     -69.43970000
H      -41.23640000     -33.53510000     -71.32240000
C      -44.44640000     -30.06600000     -72.44410000
H      -43.97200000     -29.04500000     -72.35490000
H      -44.10450000     -30.54390000     -73.32770000
S      -42.44360000     -35.52480000     -70.38760000
S      -46.27380000     -29.98710000     -72.79830000
C      -42.92720000     -35.97120000     -72.13480000
H      -42.12000000     -35.83050000     -72.85080000
H      -43.14420000     -37.01100000     -71.99130000
C      -46.47500000     -31.33530000     -74.15390000
H      -45.84180000     -31.16040000     -75.04600000
H      -47.56200000     -31.28780000     -74.45430000
C      -46.05060000     -32.69010000     -73.55050000
H      -46.23200000     -33.50430000     -74.34190000
H      -44.95560000     -32.69760000     -73.48960000
C      -44.17860000     -35.25710000     -72.75240000
H      -44.46900000     -35.68900000     -73.78080000
H      -43.98410000     -34.18150000     -72.84990000
C      -45.33550000     -35.29320000     -71.82200000
C      -45.49680000     -36.42920000     -70.90580000
C      -46.38380000     -34.33470000     -71.68490000
H      -44.79870000     -37.22930000     -70.75940000
C      -47.29150000     -34.59900000     -70.65160000
C      -46.68380000     -33.12170000     -72.33040000
C      -47.81020000     -32.50480000     -71.83400000
S      -46.91980000     -36.15620000     -69.89060000
S      -48.67270000     -33.46640000     -70.63930000
H      -48.11330000     -31.58210000     -72.23320000
