40
Properties=species:S:1:pos:R:3 #=T CELL(abcABC):=T 1.889726e+02=T 90.00000=T Traj:=T positionsangstrom=T Step:=T 0=T Bead:=T pbc="F F F"
C      -45.28140000     -31.15280000     -70.24430000
C      -44.30660000     -30.87790000     -71.16100000
C      -43.18110000     -31.77890000     -71.25790000
C      -43.01830000     -32.80880000     -70.33180000
C      -43.79590000     -32.87290000     -69.18800000
C      -44.98860000     -32.07060000     -69.16370000
H      -46.22590000     -30.56500000     -70.21170000
H      -42.43730000     -31.58840000     -72.04540000
H      -43.69250000     -33.66480000     -68.47170000
H      -45.76730000     -32.28950000     -68.50050000
C      -41.90110000     -33.84020000     -70.57670000
H      -41.17350000     -33.78530000     -69.78880000
H      -41.34530000     -33.71930000     -71.49250000
C      -44.51090000     -29.92650000     -72.28520000
H      -44.32880000     -28.86120000     -71.90020000
H      -43.73230000     -30.09000000     -73.03170000
S      -42.46340000     -35.60900000     -70.30620000
S      -46.19300000     -29.75900000     -73.00440000
C      -42.79920000     -35.98300000     -72.13290000
H      -41.88160000     -35.73280000     -72.66440000
H      -43.02940000     -37.09460000     -72.22100000
C      -46.33060000     -31.22320000     -74.16300000
H      -45.65750000     -31.01810000     -74.98850000
H      -47.28840000     -31.17770000     -74.60910000
C      -45.95530000     -32.61850000     -73.60410000
H      -45.90450000     -33.23660000     -74.50210000
H      -44.88390000     -32.57080000     -73.24240000
C      -44.06460000     -35.25580000     -72.64920000
H      -44.25520000     -35.52120000     -73.62500000
H      -43.81240000     -34.19760000     -72.60260000
C      -45.33570000     -35.43790000     -71.80930000
C      -45.42480000     -36.36610000     -70.69050000
C      -46.41410000     -34.50250000     -71.79990000
H      -44.78640000     -37.20700000     -70.70490000
C      -47.30100000     -34.71260000     -70.72970000
C      -46.81200000     -33.30600000     -72.51290000
C      -47.96350000     -32.77230000     -72.02820000
S      -46.89170000     -36.07650000     -69.80400000
S      -48.51370000     -33.55400000     -70.55160000
H      -48.40520000     -31.80610000     -72.32790000
