40
Properties=species:S:1:pos:R:3 #=T CELL(abcABC):=T 1.889726e+02=T 90.00000=T Traj:=T positionsangstrom=T Step:=T 0=T Bead:=T pbc="F F F"
C      -43.51500000     -35.80330000     -71.37590000
C      -43.39830000     -35.31460000     -70.09020000
C      -42.67450000     -34.09860000     -69.92530000
C      -42.00810000     -33.49620000     -70.96720000
C      -42.04990000     -34.10050000     -72.24770000
C      -42.79360000     -35.25780000     -72.43400000
H      -44.24790000     -36.71690000     -71.45200000
H      -42.57070000     -33.65220000     -68.92210000
H      -41.46180000     -33.76720000     -73.08860000
H      -42.87190000     -35.65870000     -73.44910000
C      -41.40340000     -32.11310000     -70.77640000
H      -40.77930000     -31.71980000     -71.63800000
H      -40.77320000     -32.10350000     -69.87680000
C      -43.92040000     -35.94460000     -68.85560000
H      -44.20270000     -37.01660000     -69.00290000
H      -43.15420000     -35.98880000     -68.06900000
S      -42.59080000     -30.78240000     -70.33770000
S      -45.42700000     -35.11760000     -68.14190000
C      -43.77080000     -31.04730000     -71.65860000
H      -44.10530000     -30.05830000     -71.96810000
H      -43.28320000     -31.62920000     -72.45290000
C      -46.46170000     -34.85170000     -69.69440000
H      -47.05380000     -35.79810000     -69.83590000
H      -45.76100000     -34.71640000     -70.50970000
C      -47.39550000     -33.59070000     -69.52630000
H      -48.23070000     -33.84430000     -68.75740000
H      -46.92870000     -32.66250000     -69.06740000
C      -44.97750000     -31.81210000     -71.10460000
H      -45.42100000     -31.18430000     -70.38210000
H      -44.74370000     -32.75480000     -70.61700000
C      -45.92710000     -32.14670000     -72.21580000
C      -45.65770000     -32.00250000     -73.56880000
C      -47.21990000     -32.76210000     -72.01550000
H      -44.93890000     -31.38930000     -74.16110000
C      -47.91830000     -33.00800000     -73.24660000
C      -47.98540000     -33.26500000     -70.91190000
C      -49.25700000     -33.61580000     -71.22260000
S      -46.91220000     -32.63140000     -74.60640000
S      -49.46530000     -33.62300000     -72.99180000
H      -49.99240000     -33.82530000     -70.47490000
