40
Properties=species:S:1:pos:R:3 #=T CELL(abcABC):=T 1.889726e+02=T 90.00000=T Traj:=T positionsangstrom=T Step:=T 0=T Bead:=T pbc="F F F"
C      -47.67320000     -36.61570000     -71.95220000
C      -46.95770000     -36.57680000     -70.76020000
C      -45.56110000     -36.46260000     -70.75560000
C      -44.84700000     -36.48330000     -71.95070000
C      -45.60010000     -36.57760000     -73.18470000
C      -46.96200000     -36.63250000     -73.21690000
H      -48.76230000     -36.58430000     -71.85390000
H      -45.15110000     -36.31580000     -69.73550000
H      -45.03710000     -36.64970000     -74.15860000
H      -47.51100000     -36.69110000     -74.06900000
C      -43.34760000     -36.36810000     -71.96510000
H      -42.80760000     -37.29950000     -71.98380000
H      -43.08480000     -35.86960000     -70.96960000
C      -47.72650000     -36.42380000     -69.45730000
H      -48.79250000     -36.19200000     -69.61280000
H      -47.50700000     -37.24400000     -68.74040000
S      -42.61760000     -35.32050000     -73.35420000
S      -47.03510000     -35.02420000     -68.34850000
C      -43.04560000     -33.59260000     -72.89580000
H      -42.71940000     -33.34300000     -71.82120000
H      -42.41060000     -32.92210000     -73.54220000
C      -46.81490000     -33.53670000     -69.36820000
H      -47.17390000     -32.68910000     -68.78400000
H      -47.44180000     -33.65800000     -70.20880000
C      -45.33820000     -33.29010000     -69.64360000
H      -44.77370000     -33.40530000     -68.61790000
H      -44.68530000     -33.90790000     -70.31480000
C      -44.52940000     -33.15560000     -73.07280000
H      -45.08370000     -33.73540000     -72.35330000
H      -44.79900000     -33.34580000     -74.06320000
C      -44.74970000     -31.73430000     -72.67830000
C      -44.78970000     -30.68590000     -73.62430000
C      -45.00960000     -31.25780000     -71.32610000
H      -44.73560000     -30.80040000     -74.69110000
C      -45.24200000     -29.88040000     -71.25680000
C      -45.22100000     -31.82410000     -70.00840000
C      -45.36660000     -30.91780000     -69.03260000
S      -44.93510000     -29.12600000     -72.81260000
S      -45.33990000     -29.22460000     -69.63990000
H      -45.67440000     -31.10530000     -67.98360000
