40
Properties=species:S:1:pos:R:3 #=T CELL(abcABC):=T 1.889726e+02=T 90.00000=T Traj:=T positionsangstrom=T Step:=T 0=T Bead:=T pbc="F F F"
C      -43.19330000     -35.93260000     -71.10260000
C      -43.29370000     -35.32180000     -69.81360000
C      -42.63270000     -34.11750000     -69.68560000
C      -42.07350000     -33.44490000     -70.80260000
C      -42.18380000     -34.03080000     -72.07020000
C      -42.70920000     -35.29840000     -72.23530000
H      -43.51200000     -37.00230000     -71.25410000
H      -42.49780000     -33.54550000     -68.75540000
H      -41.83920000     -33.32930000     -72.85650000
H      -42.62270000     -35.78460000     -73.21090000
C      -41.34660000     -32.13860000     -70.54030000
H      -40.60550000     -31.96920000     -71.25210000
H      -40.78240000     -32.12870000     -69.63270000
C      -44.03310000     -36.02970000     -68.76620000
H      -44.52530000     -36.88830000     -69.22130000
H      -43.39390000     -36.37620000     -67.95790000
S      -42.54630000     -30.71670000     -70.37780000
S      -45.51690000     -34.98930000     -68.13600000
C      -43.81300000     -30.95880000     -71.71550000
H      -43.85760000     -30.09550000     -72.29010000
H      -43.34840000     -31.69030000     -72.37620000
C      -46.28590000     -34.51590000     -69.71650000
H      -46.78790000     -35.40340000     -70.14550000
H      -45.51080000     -34.22600000     -70.44470000
C      -47.31660000     -33.35490000     -69.63640000
H      -47.98170000     -33.60540000     -68.83730000
H      -46.83660000     -32.40330000     -69.47120000
C      -45.15350000     -31.55230000     -71.26570000
H      -45.88590000     -30.77810000     -70.94330000
H      -44.91530000     -32.26280000     -70.36000000
C      -45.92940000     -32.26930000     -72.40220000
C      -45.69430000     -32.14830000     -73.73060000
C      -47.18630000     -32.90840000     -72.16420000
H      -44.82430000     -31.61460000     -74.16720000
C      -47.96560000     -33.02740000     -73.31540000
C      -47.95380000     -33.28750000     -71.02790000
C      -49.17120000     -33.81870000     -71.34180000
S      -46.97200000     -32.78290000     -74.73780000
S      -49.53950000     -33.73450000     -73.01630000
H      -49.83370000     -34.07740000     -70.51240000
