40
Properties=species:S:1:pos:R:3 #=T CELL(abcABC):=T 1.889726e+02=T 90.00000=T Traj:=T positionsangstrom=T Step:=T 0=T Bead:=T pbc="F F F"
C      -45.21280000     -31.05750000     -70.18980000
C      -44.28150000     -31.00040000     -71.27230000
C      -43.23400000     -31.95910000     -71.34340000
C      -43.20120000     -32.99710000     -70.40210000
C      -44.18390000     -33.15310000     -69.38760000
C      -45.28000000     -32.21200000     -69.35080000
H      -46.01470000     -30.26720000     -70.17270000
H      -42.52610000     -31.90930000     -72.17010000
H      -44.13700000     -33.91690000     -68.63240000
H      -45.96700000     -32.23650000     -68.49950000
C      -41.88600000     -33.78200000     -70.36330000
H      -41.33800000     -33.54950000     -69.41380000
H      -41.17200000     -33.61340000     -71.24030000
C      -44.43540000     -29.85350000     -72.20870000
H      -44.45970000     -28.89470000     -71.81240000
H      -43.56290000     -29.92410000     -72.94990000
S      -42.17640000     -35.53490000     -70.29520000
S      -46.14770000     -29.81520000     -73.17410000
C      -42.88860000     -36.07770000     -71.96440000
H      -42.04410000     -35.97830000     -72.67290000
H      -43.03540000     -37.12430000     -71.91080000
C      -46.15320000     -31.25630000     -74.19700000
H      -45.40390000     -31.09270000     -75.03430000
H      -47.21330000     -31.28140000     -74.66770000
C      -45.90100000     -32.63750000     -73.60870000
H      -46.13720000     -33.38430000     -74.41120000
H      -44.83750000     -32.69740000     -73.42620000
C      -44.08340000     -35.39330000     -72.53610000
H      -44.35670000     -35.95580000     -73.51730000
H      -43.89040000     -34.37100000     -72.98160000
C      -45.29340000     -35.34710000     -71.62610000
C      -45.49540000     -36.31080000     -70.66350000
C      -46.34070000     -34.31360000     -71.59170000
H      -44.71320000     -37.15880000     -70.61700000
C      -47.27130000     -34.59510000     -70.66550000
C      -46.68400000     -33.11080000     -72.36040000
C      -47.87420000     -32.59350000     -72.00790000
S      -46.89870000     -36.02430000     -69.69650000
S      -48.70010000     -33.53750000     -70.72760000
H      -48.46260000     -31.80980000     -72.59490000
