40
Properties=species:S:1:pos:R:3 #=T CELL(abcABC):=T 1.889726e+02=T 90.00000=T Traj:=T positionsangstrom=T Step:=T 0=T Bead:=T pbc="F F F"
C      -47.59790000     -36.75150000     -72.02060000
C      -46.91170000     -36.38380000     -70.85190000
C      -45.53620000     -36.24500000     -70.88500000
C      -44.82720000     -36.50620000     -72.10250000
C      -45.54470000     -36.73630000     -73.25460000
C      -46.93310000     -36.94710000     -73.18790000
H      -48.73260000     -36.80100000     -71.97370000
H      -45.08040000     -36.04220000     -69.93990000
H      -45.03530000     -36.77600000     -74.19000000
H      -47.50460000     -37.15800000     -74.10260000
C      -43.30450000     -36.38270000     -72.04410000
H      -42.81660000     -37.27460000     -72.41940000
H      -42.96950000     -36.19860000     -71.06190000
C      -47.75780000     -36.18810000     -69.58800000
H      -48.73630000     -35.73430000     -69.70930000
H      -48.09340000     -37.18550000     -69.25350000
S      -42.59490000     -35.21700000     -73.34240000
S      -46.98770000     -35.21440000     -68.18890000
C      -43.09300000     -33.54700000     -72.61950000
H      -43.01230000     -33.57150000     -71.55200000
H      -42.42980000     -32.81200000     -73.05830000
C      -46.79050000     -33.73410000     -69.27360000
H      -47.32020000     -32.76100000     -68.99980000
H      -47.25100000     -34.17890000     -70.18050000
C      -45.35730000     -33.30960000     -69.64600000
H      -44.75720000     -33.57190000     -68.83090000
H      -45.10820000     -33.89330000     -70.50650000
C      -44.50110000     -33.14280000     -73.01380000
H      -45.30020000     -33.79110000     -72.53670000
H      -44.72750000     -33.40500000     -74.05120000
C      -44.70280000     -31.72290000     -72.62520000
C      -44.66250000     -30.64220000     -73.53510000
C      -45.00650000     -31.20930000     -71.29100000
H      -44.52960000     -30.73680000     -74.61020000
C      -45.14510000     -29.79960000     -71.24550000
C      -45.28040000     -31.77810000     -70.00260000
C      -45.45860000     -30.78390000     -69.08900000
S      -44.86750000     -29.13760000     -72.77610000
S      -45.58120000     -29.16680000     -69.75030000
H      -45.86760000     -31.02600000     -68.12550000
