40
Properties=species:S:1:pos:R:3 #=T CELL(abcABC):=T 1.889726e+02=T 90.00000=T Traj:=T positionsangstrom=T Step:=T 0=T Bead:=T pbc="F F F"
C      -42.72310000     -36.50610000     -71.77280000
C      -42.78610000     -35.89050000     -70.49560000
C      -42.32890000     -34.58620000     -70.30780000
C      -41.88180000     -33.88880000     -71.40890000
C      -41.98830000     -34.41350000     -72.67420000
C      -42.42790000     -35.70790000     -72.87690000
H      -43.06710000     -37.46140000     -71.82130000
H      -42.25370000     -34.17250000     -69.33630000
H      -41.65930000     -33.74860000     -73.48330000
H      -42.29840000     -36.14510000     -73.86350000
C      -41.24230000     -32.54990000     -71.20320000
H      -40.86300000     -32.14600000     -72.20620000
H      -40.45730000     -32.50340000     -70.42360000
C      -43.45230000     -36.69270000     -69.31650000
H      -43.76840000     -37.68980000     -69.68120000
H      -42.73830000     -36.89280000     -68.48970000
S      -42.42080000     -31.15870000     -70.54730000
S      -44.90850000     -35.73350000     -68.67850000
C      -43.82950000     -30.99360000     -71.67350000
H      -44.03300000     -29.94210000     -71.74680000
H      -43.53320000     -31.43920000     -72.63880000
C      -46.01860000     -35.38510000     -70.12560000
H      -46.70830000     -36.20850000     -70.37360000
H      -45.35440000     -35.18000000     -70.99270000
C      -46.84800000     -34.11280000     -69.73010000
H      -47.45130000     -34.43790000     -68.90580000
H      -46.13720000     -33.29700000     -69.36640000
C      -45.01240000     -31.73690000     -71.14570000
H      -45.14970000     -31.42940000     -70.09840000
H      -44.72420000     -32.83150000     -71.07800000
C      -46.26150000     -31.56230000     -71.94680000
C      -46.56840000     -30.59920000     -72.84290000
C      -47.45140000     -32.48160000     -71.78100000
H      -45.96800000     -29.79810000     -73.26970000
C      -48.53950000     -32.12800000     -72.53300000
C      -47.73510000     -33.57240000     -70.87660000
C      -48.95060000     -34.13150000     -71.11660000
S      -48.19290000     -30.79930000     -73.64680000
S      -49.89070000     -33.26310000     -72.31010000
H      -49.24740000     -35.05890000     -70.70660000
