40
Properties=species:S:1:pos:R:3 #=T CELL(abcABC):=T 1.889726e+02=T 90.00000=T Traj:=T positionsangstrom=T Step:=T 0=T Bead:=T pbc="F F F"
C      -43.75170000     -35.83590000     -71.61730000
C      -43.29120000     -35.56140000     -70.28890000
C      -42.44570000     -34.44010000     -70.13040000
C      -42.02650000     -33.60010000     -71.16160000
C      -42.51020000     -33.91010000     -72.47470000
C      -43.31210000     -35.05360000     -72.70510000
H      -44.43240000     -36.54560000     -71.86150000
H      -42.27040000     -34.11160000     -69.11610000
H      -42.07520000     -33.27310000     -73.30050000
H      -43.68460000     -35.32040000     -73.67510000
C      -41.21750000     -32.44590000     -70.87780000
H      -40.76250000     -31.83180000     -71.67140000
H      -40.45520000     -32.68140000     -70.06130000
C      -43.91470000     -36.26560000     -69.09150000
H      -44.49830000     -37.15330000     -69.37660000
H      -43.22640000     -36.47710000     -68.28980000
S      -42.36860000     -31.10370000     -70.03500000
S      -45.10090000     -35.02890000     -68.19940000
C      -43.67900000     -31.04070000     -71.36720000
H      -43.91870000     -30.01210000     -71.55410000
H      -43.22460000     -31.54050000     -72.24080000
C      -46.28000000     -34.92300000     -69.59380000
H      -46.92720000     -35.82180000     -69.60110000
H      -45.71570000     -34.93160000     -70.56900000
C      -47.23410000     -33.74600000     -69.58710000
H      -48.00730000     -33.93200000     -68.83470000
H      -46.62000000     -32.84790000     -69.24410000
C      -45.03980000     -31.72750000     -70.99390000
H      -45.54220000     -31.11340000     -70.30220000
H      -44.71450000     -32.60650000     -70.39340000
C      -46.02730000     -32.06710000     -72.13640000
C      -45.91050000     -31.48970000     -73.39050000
C      -47.27620000     -32.81440000     -72.03370000
H      -45.16560000     -30.78500000     -73.60070000
C      -47.97270000     -32.85270000     -73.19290000
C      -47.83570000     -33.52530000     -70.89410000
C      -49.01520000     -34.04970000     -71.28310000
S      -47.29520000     -31.85950000     -74.45000000
S      -49.46070000     -33.71260000     -73.00470000
H      -49.84650000     -34.48070000     -70.68290000
