40
Properties=species:S:1:pos:R:3 #=T CELL(abcABC):=T 1.889726e+02=T 90.00000=T Traj:=T positionsangstrom=T Step:=T 0=T Bead:=T pbc="F F F"
C      -48.21190000     -35.97900000     -71.24930000
C      -47.13390000     -36.18640000     -70.36160000
C      -45.87790000     -36.48590000     -70.88330000
C      -45.66340000     -36.55390000     -72.27300000
C      -46.79370000     -36.40630000     -73.13370000
C      -48.01600000     -36.06270000     -72.60120000
H      -49.21200000     -35.82400000     -70.88470000
H      -45.00030000     -36.51760000     -70.27250000
H      -46.77670000     -36.39510000     -74.20720000
H      -48.85220000     -36.10350000     -73.21700000
C      -44.31350000     -36.88910000     -72.80830000
H      -44.31400000     -37.67160000     -73.53290000
H      -43.62720000     -37.34420000     -72.06460000
C      -47.34010000     -36.08400000     -68.88260000
H      -48.42890000     -36.14300000     -68.77830000
H      -46.94110000     -36.97600000     -68.27070000
S      -43.44740000     -35.53730000     -73.85120000
S      -46.76770000     -34.62170000     -68.02720000
C      -43.63370000     -34.05900000     -72.74790000
H      -43.38050000     -34.32780000     -71.76450000
H      -42.91540000     -33.24550000     -73.13780000
C      -46.40390000     -33.44910000     -69.35960000
H      -47.00890000     -32.53200000     -69.14220000
H      -46.93100000     -33.84110000     -70.27310000
C      -44.89280000     -33.18670000     -69.44550000
H      -44.39410000     -33.25360000     -68.44920000
H      -44.52380000     -33.98650000     -70.11480000
C      -44.98410000     -33.48780000     -72.98210000
H      -45.85100000     -33.97690000     -72.48170000
H      -45.08700000     -33.56410000     -74.04410000
C      -44.88090000     -31.94860000     -72.63590000
C      -44.71240000     -30.99130000     -73.60420000
C      -44.70160000     -31.35210000     -71.35060000
H      -44.71610000     -31.08310000     -74.66160000
C      -44.50090000     -29.93070000     -71.38200000
C      -44.69660000     -31.79930000     -69.98500000
C      -44.54190000     -30.82830000     -69.00960000
S      -44.42730000     -29.33070000     -73.07940000
S      -44.21160000     -29.26830000     -69.75000000
H      -44.35200000     -30.97700000     -67.95530000
