40
Properties=species:S:1:pos:R:3 #=T CELL(abcABC):=T 1.889726e+02=T 90.00000=T Traj:=T positionsangstrom=T Step:=T 0=T Bead:=T pbc="F F F"
C      -43.23300000     -35.95940000     -72.37520000
C      -43.22040000     -35.54570000     -71.02750000
C      -42.42990000     -34.44300000     -70.70720000
C      -41.77070000     -33.74330000     -71.77760000
C      -41.73980000     -34.13320000     -73.11330000
C      -42.48350000     -35.30060000     -73.34890000
H      -43.76070000     -36.85640000     -72.69580000
H      -42.36750000     -34.04250000     -69.65960000
H      -41.15440000     -33.62970000     -73.84010000
H      -42.50750000     -35.79110000     -74.30210000
C      -41.07930000     -32.41480000     -71.46240000
H      -40.84540000     -31.93110000     -72.42360000
H      -40.20520000     -32.45080000     -70.83970000
C      -43.82400000     -36.36330000     -69.88580000
H      -44.48360000     -37.02340000     -70.38350000
H      -43.06430000     -36.94810000     -69.35680000
S      -42.16780000     -31.22150000     -70.63050000
S      -44.78320000     -35.42400000     -68.62350000
C      -43.67030000     -31.30790000     -71.59200000
H      -44.00730000     -30.28060000     -71.81070000
H      -43.44040000     -31.61800000     -72.62240000
C      -46.32550000     -35.06120000     -69.48750000
H      -46.99280000     -36.01040000     -69.48690000
H      -46.04080000     -34.88350000     -70.53910000
C      -47.19970000     -33.83290000     -68.99170000
H      -47.89730000     -34.25870000     -68.22400000
H      -46.52700000     -33.03880000     -68.63790000
C      -44.82640000     -32.17300000     -71.02900000
H      -44.98230000     -31.90370000     -69.98570000
H      -44.49000000     -33.21910000     -70.99270000
C      -46.17780000     -32.05540000     -71.76070000
C      -46.24300000     -31.53200000     -73.03560000
C      -47.48470000     -32.57810000     -71.38240000
H      -45.48500000     -30.86370000     -73.43790000
C      -48.42160000     -32.41900000     -72.44170000
C      -48.01370000     -33.29120000     -70.20590000
C      -49.30900000     -33.63760000     -70.38640000
S      -47.85080000     -31.60160000     -73.82010000
S      -49.99940000     -33.17760000     -72.02240000
H      -49.86110000     -34.34470000     -69.80860000
