40
Properties=species:S:1:pos:R:3 #=T CELL(abcABC):=T 1.889726e+02=T 90.00000=T Traj:=T positionsangstrom=T Step:=T 0=T Bead:=T pbc="F F F"
C      -43.13780000     -32.24950000     -68.48590000
C      -44.37420000     -31.55350000     -68.67840000
C      -44.54090000     -30.86150000     -69.83460000
C      -43.52930000     -30.72800000     -70.77770000
C      -42.28980000     -31.33180000     -70.57420000
C      -42.04170000     -32.07650000     -69.41910000
H      -43.07770000     -32.88040000     -67.55880000
H      -45.49770000     -30.40970000     -70.00140000
H      -41.55010000     -31.11550000     -71.39470000
H      -41.00130000     -32.30170000     -69.18780000
C      -43.84400000     -29.91680000     -72.01980000
H      -43.35940000     -28.98980000     -72.07640000
H      -44.93180000     -29.88030000     -72.24510000
C      -45.44350000     -31.63660000     -67.60770000
H      -45.24330000     -32.51990000     -67.05840000
H      -45.42100000     -30.81070000     -66.89250000
S      -43.31040000     -30.89720000     -73.55840000
S      -47.23150000     -31.63720000     -68.26410000
C      -44.38290000     -32.35300000     -73.57300000
H      -45.47670000     -32.21140000     -73.57660000
H      -44.23290000     -32.79170000     -74.52470000
C      -47.49970000     -33.25220000     -69.06900000
H      -48.61460000     -33.40110000     -69.09490000
H      -47.19930000     -34.08010000     -68.39470000
C      -46.88700000     -33.23480000     -70.48010000
H      -47.50370000     -32.62570000     -71.12290000
H      -45.86010000     -32.86730000     -70.44090000
C      -43.94380000     -33.42810000     -72.56600000
H      -44.13540000     -33.15040000     -71.50280000
H      -42.92750000     -33.63110000     -72.68340000
C      -44.73700000     -34.69700000     -72.78720000
C      -44.29470000     -35.69590000     -73.63500000
C      -46.07760000     -35.08820000     -72.21190000
H      -43.36620000     -35.63720000     -74.07020000
C      -46.49060000     -36.29350000     -72.70900000
C      -47.05960000     -34.52500000     -71.27160000
C      -48.24470000     -35.31220000     -71.35910000
S      -45.32810000     -37.16220000     -73.80730000
S      -48.09320000     -36.82800000     -72.27580000
H      -49.08850000     -35.26850000     -70.68680000
