40
Properties=species:S:1:pos:R:3 #=T CELL(abcABC):=T 1.889726e+02=T 90.00000=T Traj:=T positionsangstrom=T Step:=T 0=T Bead:=T pbc="F F F"
C      -43.55570000     -36.06170000     -72.43900000
C      -43.12640000     -35.70040000     -71.08250000
C      -42.38160000     -34.54080000     -70.86520000
C      -41.93760000     -33.75690000     -71.89570000
C      -42.32230000     -34.07690000     -73.21250000
C      -43.12010000     -35.24020000     -73.45140000
H      -44.16150000     -36.97650000     -72.54550000
H      -42.11240000     -34.34390000     -69.85740000
H      -42.07100000     -33.48520000     -74.01990000
H      -43.46510000     -35.37510000     -74.43610000
C      -41.13700000     -32.53310000     -71.59950000
H      -40.92420000     -32.01280000     -72.49170000
H      -40.29420000     -32.79110000     -70.94990000
C      -43.60120000     -36.54660000     -69.86590000
H      -44.34620000     -37.29420000     -70.16450000
H      -42.67400000     -37.02010000     -69.39810000
S      -42.21750000     -31.25990000     -70.69630000
S      -44.57380000     -35.47680000     -68.60650000
C      -43.83610000     -31.10290000     -71.61790000
H      -44.22120000     -30.10600000     -71.65350000
H      -43.66990000     -31.35520000     -72.66150000
C      -45.93910000     -34.98600000     -69.71950000
H      -46.58160000     -35.83100000     -69.90000000
H      -45.53180000     -34.80280000     -70.69150000
C      -46.70160000     -33.75140000     -69.20120000
H      -47.23900000     -33.97520000     -68.28580000
H      -46.00920000     -32.95970000     -68.99300000
C      -44.90540000     -32.03760000     -71.05270000
H      -45.17550000     -31.76250000     -70.06020000
H      -44.52730000     -33.03760000     -70.98730000
C      -46.11620000     -32.12050000     -71.93330000
C      -46.30980000     -31.53900000     -73.23210000
C      -47.36890000     -32.61250000     -71.44110000
H      -45.48480000     -31.21120000     -73.83540000
C      -48.45970000     -32.42530000     -72.24610000
C      -47.71460000     -33.25520000     -70.20280000
C      -49.07700000     -33.62190000     -70.09050000
S      -47.99980000     -31.62500000     -73.75770000
S      -49.95420000     -33.03140000     -71.56770000
H      -49.52260000     -34.36120000     -69.44890000
