40
Properties=species:S:1:pos:R:3 #=T CELL(abcABC):=T 1.889726e+02=T 90.00000=T Traj:=T positionsangstrom=T Step:=T 0=T Bead:=T pbc="F F F"
C      -48.84170000     -34.88710000     -71.07460000
C      -47.75480000     -35.29730000     -70.29400000
C      -46.81270000     -36.09120000     -70.94440000
C      -46.81480000     -36.32050000     -72.31610000
C      -47.89470000     -35.90310000     -73.09720000
C      -48.91460000     -35.23450000     -72.43590000
H      -49.65820000     -34.35600000     -70.62070000
H      -45.93070000     -36.27020000     -70.33570000
H      -48.00630000     -36.00990000     -74.14990000
H      -49.72860000     -34.81470000     -72.95440000
C      -45.57070000     -37.06800000     -72.88540000
H      -45.91790000     -37.97620000     -73.49210000
H      -44.88470000     -37.41000000     -72.16330000
C      -47.80070000     -34.94810000     -68.78640000
H      -48.13140000     -33.88240000     -68.67290000
H      -48.52670000     -35.63450000     -68.23240000
S      -44.54750000     -35.99780000     -74.14330000
S      -46.11270000     -35.31750000     -68.00690000
C      -43.93140000     -34.30540000     -73.40210000
H      -43.11830000     -34.47320000     -72.58380000
H      -43.36870000     -33.97590000     -74.20580000
C      -45.11940000     -33.81040000     -68.39560000
H      -44.12480000     -34.23590000     -68.51020000
H      -45.19730000     -32.95250000     -67.69890000
C      -45.47100000     -33.12560000     -69.71190000
H      -45.36260000     -33.86840000     -70.57150000
H      -46.53790000     -32.84080000     -69.54320000
C      -44.98090000     -33.20650000     -73.08690000
H      -45.78320000     -33.67030000     -72.45970000
H      -45.44470000     -32.99730000     -74.01810000
C      -44.34710000     -31.94400000     -72.64990000
C      -43.75060000     -31.14260000     -73.63450000
C      -44.37980000     -31.39680000     -71.30370000
H      -43.62630000     -31.29290000     -74.68580000
C      -43.67200000     -30.16140000     -71.33870000
C      -44.70370000     -31.85790000     -69.95230000
C      -44.33020000     -30.85980000     -69.07440000
S      -43.08150000     -29.67510000     -72.93040000
S      -43.51210000     -29.50570000     -69.75390000
H      -44.69150000     -30.90460000     -68.03400000
