40
Properties=species:S:1:pos:R:3 #=T CELL(abcABC):=T 1.889726e+02=T 90.00000=T Traj:=T positionsangstrom=T Step:=T 0=T Bead:=T pbc="F F F"
C      -44.41220000     -36.01820000     -72.31680000
C      -43.46800000     -35.78510000     -71.30780000
C      -42.50840000     -34.71230000     -71.56130000
C      -42.71970000     -33.84120000     -72.63500000
C      -43.82950000     -34.06560000     -73.50090000
C      -44.58170000     -35.20290000     -73.36940000
H      -45.07230000     -36.88740000     -72.32220000
H      -41.71990000     -34.49460000     -70.85470000
H      -44.02860000     -33.36320000     -74.31620000
H      -45.38780000     -35.32600000     -74.07640000
C      -41.95820000     -32.59040000     -72.90560000
H      -42.10520000     -32.22530000     -73.95090000
H      -40.92810000     -32.90650000     -72.90560000
C      -43.28530000     -36.69370000     -70.11000000
H      -43.70100000     -37.71490000     -70.24110000
H      -42.20580000     -36.81480000     -69.94270000
S      -42.00480000     -31.24790000     -71.73760000
S      -43.96690000     -36.06810000     -68.46310000
C      -43.74950000     -30.63520000     -72.05800000
H      -43.75940000     -29.53190000     -71.94360000
H      -43.98000000     -30.80720000     -73.13500000
C      -45.70080000     -35.55930000     -68.96020000
H      -46.35950000     -35.67720000     -68.10580000
H      -45.97740000     -36.18410000     -69.80500000
C      -45.78440000     -34.06290000     -69.38040000
H      -45.92400000     -33.48660000     -68.40850000
H      -44.86850000     -33.69260000     -69.77930000
C      -44.67860000     -31.49410000     -71.20840000
H      -44.36830000     -31.57080000     -70.14280000
H      -44.40230000     -32.51720000     -71.57460000
C      -46.12980000     -31.45210000     -71.55140000
C      -46.66930000     -30.43190000     -72.29930000
C      -46.98530000     -32.53340000     -71.15790000
H      -46.15490000     -29.54700000     -72.67010000
C      -48.23610000     -32.27160000     -71.68960000
C      -46.96570000     -33.73430000     -70.34170000
C      -48.23140000     -34.30960000     -70.14550000
S      -48.40980000     -30.86130000     -72.68270000
S      -49.46520000     -33.43160000     -71.12690000
H      -48.44310000     -35.22910000     -69.77490000
