40
Properties=species:S:1:pos:R:3 #=T CELL(abcABC):=T 1.889726e+02=T 90.00000=T Traj:=T positionsangstrom=T Step:=T 0=T Bead:=T pbc="F F F"
C      -42.89910000     -34.64590000     -67.26550000
C      -43.69670000     -33.67220000     -67.86490000
C      -43.13520000     -32.95720000     -68.93620000
C      -41.92990000     -33.33570000     -69.52490000
C      -41.21750000     -34.43840000     -69.01030000
C      -41.65650000     -34.97220000     -67.82040000
H      -43.14480000     -35.14460000     -66.30480000
H      -43.58340000     -32.08690000     -69.43350000
H      -40.23840000     -34.73080000     -69.45010000
H      -41.04040000     -35.61690000     -67.25050000
C      -41.42380000     -32.57200000     -70.73450000
H      -40.99250000     -33.34580000     -71.39330000
H      -40.69830000     -31.81840000     -70.46690000
C      -45.02970000     -33.35180000     -67.16490000
H      -45.65300000     -34.31820000     -67.00810000
H      -44.82270000     -32.94640000     -66.17770000
S      -42.72750000     -31.69980000     -71.69850000
S      -46.10930000     -32.24400000     -68.06880000
C      -43.75630000     -33.04690000     -72.46550000
H      -43.12320000     -33.96960000     -72.60450000
H      -44.59020000     -33.29780000     -71.81160000
C      -46.27250000     -33.24340000     -69.73290000
H      -46.94570000     -34.07730000     -69.58130000
H      -45.25720000     -33.62290000     -69.99160000
C      -46.78690000     -32.32100000     -70.85540000
H      -47.64680000     -31.80190000     -70.45280000
H      -46.07360000     -31.50930000     -71.08990000
C      -44.42560000     -32.47220000     -73.72540000
H      -43.81620000     -32.66710000     -74.62290000
H      -44.67640000     -31.45950000     -73.60790000
C      -45.75030000     -33.28300000     -74.09530000
C      -45.85870000     -33.92250000     -75.32240000
C      -46.98430000     -33.43420000     -73.33620000
H      -45.19030000     -33.89620000     -76.21100000
C      -47.97910000     -34.14180000     -74.05810000
C      -47.48680000     -33.17340000     -71.98040000
C      -48.80110000     -33.46880000     -71.79630000
S      -47.37560000     -34.73480000     -75.59130000
S      -49.51220000     -34.29790000     -73.18950000
H      -49.39330000     -33.20460000     -70.93740000
