40
Properties=species:S:1:pos:R:3 #=T CELL(abcABC):=T 1.889726e+02=T 90.00000=T Traj:=T positionsangstrom=T Step:=T 0=T Bead:=T pbc="F F F"
C      -43.07640000     -35.04020000     -67.81030000
C      -43.68370000     -33.74410000     -68.04580000
C      -43.05230000     -32.88590000     -68.88090000
C      -41.88390000     -33.25150000     -69.62420000
C      -41.31340000     -34.51460000     -69.46200000
C      -42.00450000     -35.42320000     -68.54630000
H      -43.54200000     -35.74110000     -67.09550000
H      -43.52880000     -31.99280000     -69.18220000
H      -40.74440000     -34.92420000     -70.24940000
H      -41.53830000     -36.46120000     -68.39050000
C      -41.40080000     -32.31910000     -70.74270000
H      -40.78330000     -32.77000000     -71.47290000
H      -40.99180000     -31.44830000     -70.25480000
C      -45.01490000     -33.35470000     -67.39240000
H      -45.67500000     -34.22900000     -67.54630000
H      -44.96340000     -33.20790000     -66.30090000
S      -42.79270000     -31.61420000     -71.63130000
S      -45.94270000     -31.88450000     -68.18650000
C      -43.53050000     -32.95270000     -72.67600000
H      -42.75380000     -33.61810000     -73.05470000
H      -44.00980000     -33.62380000     -71.92650000
C      -46.63220000     -32.90560000     -69.65610000
H      -47.57560000     -33.36360000     -69.24750000
H      -45.92150000     -33.72120000     -69.76230000
C      -46.74110000     -32.09250000     -70.90140000
H      -47.23990000     -31.16080000     -70.59060000
H      -45.81670000     -31.86330000     -71.29180000
C      -44.51870000     -32.35560000     -73.65400000
H      -44.02460000     -32.06610000     -74.56960000
H      -44.94390000     -31.38260000     -73.28270000
C      -45.72920000     -33.29710000     -73.98880000
C      -45.88300000     -34.01680000     -75.16810000
C      -46.91700000     -33.57790000     -73.09740000
H      -45.22980000     -34.07520000     -76.00260000
C      -47.85880000     -34.37230000     -73.71550000
C      -47.47520000     -32.99970000     -71.92930000
C      -48.76230000     -33.41370000     -71.70780000
S      -47.38110000     -34.98360000     -75.21760000
S      -49.40790000     -34.48900000     -72.93850000
H      -49.34940000     -33.26130000     -70.83450000
