40
Properties=species:S:1:pos:R:3 #=T CELL(abcABC):=T 1.889726e+02=T 90.00000=T Traj:=T positionsangstrom=T Step:=T 0=T Bead:=T pbc="F F F"
C      -42.83580000     -30.38440000     -68.97910000
C      -43.76060000     -30.32510000     -70.09390000
C      -43.41590000     -30.97820000     -71.29290000
C      -42.23660000     -31.76010000     -71.36220000
C      -41.36010000     -31.77460000     -70.27070000
C      -41.60760000     -31.05940000     -69.10180000
H      -43.03790000     -29.86570000     -68.10040000
H      -44.08110000     -30.99010000     -72.05760000
H      -40.40810000     -32.37440000     -70.33770000
H      -40.97280000     -31.12680000     -68.25590000
C      -41.92140000     -32.53430000     -72.64240000
H      -40.92250000     -32.22710000     -73.02160000
H      -42.64720000     -32.25260000     -73.40780000
C      -45.09090000     -29.62300000     -69.87760000
H      -45.13090000     -28.86000000     -69.03900000
H      -45.34760000     -29.05710000     -70.78120000
S      -41.97100000     -34.42980000     -72.33480000
S      -46.50780000     -30.73810000     -69.85450000
C      -43.64490000     -34.79530000     -72.96660000
H      -44.17710000     -33.89780000     -72.94110000
H      -43.64630000     -35.10840000     -73.96870000
C      -46.05260000     -32.31290000     -69.10280000
H      -46.84470000     -32.63130000     -68.47270000
H      -45.17330000     -32.18490000     -68.49820000
C      -45.71560000     -33.38920000     -70.09270000
H      -45.03640000     -32.99780000     -70.87410000
H      -45.23250000     -34.11440000     -69.43730000
C      -44.36110000     -35.83770000     -72.08900000
H      -44.37980000     -35.74340000     -71.04340000
H      -44.10730000     -36.87460000     -72.24370000
C      -45.83340000     -35.70100000     -72.50730000
C      -46.40420000     -36.51220000     -73.42170000
C      -46.87250000     -34.98130000     -71.80170000
H      -45.80890000     -37.11640000     -74.12870000
C      -48.14590000     -35.17520000     -72.28530000
C      -46.91730000     -33.96090000     -70.75060000
C      -48.22520000     -33.80130000     -70.34510000
S      -48.12100000     -36.44000000     -73.52260000
S      -49.42620000     -34.48230000     -71.35480000
H      -48.54260000     -32.95890000     -69.66030000
