40
Properties=species:S:1:pos:R:3 #=T CELL(abcABC):=T 1.889726e+02=T 90.00000=T Traj:=T positionsangstrom=T Step:=T 0=T Bead:=T pbc="F F F"
C      -42.89090000     -30.36010000     -68.93330000
C      -43.84510000     -30.48910000     -69.94860000
C      -43.49800000     -31.10980000     -71.12490000
C      -42.22810000     -31.67440000     -71.31770000
C      -41.28430000     -31.70380000     -70.26760000
C      -41.61440000     -31.03150000     -69.11290000
H      -43.10780000     -29.79230000     -68.04760000
H      -44.11580000     -31.04660000     -72.00710000
H      -40.29660000     -32.09070000     -70.35950000
H      -40.85430000     -30.93430000     -68.36100000
C      -41.90820000     -32.37300000     -72.61470000
H      -40.85030000     -32.22360000     -72.86820000
H      -42.50380000     -32.17890000     -73.48730000
C      -45.08740000     -29.64790000     -69.79310000
H      -45.02880000     -29.08240000     -68.86450000
H      -45.22810000     -28.96850000     -70.61870000
S      -41.89390000     -34.24040000     -72.41820000
S      -46.64060000     -30.69410000     -69.71950000
C      -43.54490000     -34.78350000     -73.10940000
H      -44.12590000     -33.87950000     -73.44870000
H      -43.35190000     -35.53820000     -73.97740000
C      -45.89360000     -32.31710000     -69.10170000
H      -46.57550000     -32.59880000     -68.22010000
H      -44.89880000     -32.14610000     -68.62910000
C      -45.73510000     -33.39720000     -70.13560000
H      -44.96930000     -32.93860000     -70.87090000
H      -45.30910000     -34.32000000     -69.66010000
C      -44.42910000     -35.59820000     -72.12050000
H      -44.27920000     -35.11820000     -71.16390000
H      -43.74770000     -36.56730000     -72.04740000
C      -45.85260000     -35.84970000     -72.42840000
C      -46.31130000     -36.66810000     -73.41360000
C      -46.93750000     -35.10930000     -71.74980000
H      -45.62740000     -37.16050000     -74.19600000
C      -48.19420000     -35.36630000     -72.26760000
C      -46.97780000     -34.01980000     -70.78830000
C      -48.26120000     -33.59450000     -70.55650000
S      -48.06250000     -36.48770000     -73.60480000
S      -49.45520000     -34.62820000     -71.38360000
H      -48.70030000     -32.83220000     -69.92970000
