40
Properties=species:S:1:pos:R:3 #=T CELL(abcABC):=T 1.889726e+02=T 90.00000=T Traj:=T positionsangstrom=T Step:=T 0=T Bead:=T pbc="F F F"
C      -43.67800000     -35.18710000     -67.52380000
C      -43.96250000     -33.80940000     -67.78520000
C      -43.25010000     -33.14460000     -68.73260000
C      -42.25060000     -33.76570000     -69.54670000
C      -41.89770000     -35.04910000     -69.14610000
C      -42.57880000     -35.74430000     -68.08030000
H      -44.22200000     -35.64870000     -66.70230000
H      -43.52650000     -32.12670000     -68.98590000
H      -41.16100000     -35.66120000     -69.66770000
H      -42.17130000     -36.73030000     -67.87780000
C      -41.47040000     -33.06190000     -70.65210000
H      -41.12760000     -33.76160000     -71.39450000
H      -40.59510000     -32.50820000     -70.19780000
C      -45.16210000     -33.25170000     -67.04600000
H      -45.73150000     -34.12270000     -66.65570000
H      -45.01010000     -32.73240000     -66.08320000
S      -42.48740000     -31.73780000     -71.53150000
S      -46.23840000     -32.16290000     -68.13180000
C      -43.86120000     -32.74020000     -72.14920000
H      -43.62980000     -33.80830000     -72.39810000
H      -44.53280000     -32.94500000     -71.31350000
C      -46.55220000     -33.10060000     -69.69860000
H      -47.36010000     -33.80470000     -69.37950000
H      -45.60080000     -33.59590000     -69.94910000
C      -47.09770000     -32.24690000     -70.83970000
H      -47.93180000     -31.66060000     -70.47020000
H      -46.47030000     -31.43670000     -71.13210000
C      -44.53710000     -31.92890000     -73.21550000
H      -43.83890000     -31.71490000     -74.01530000
H      -44.78650000     -30.96600000     -72.79930000
C      -45.66420000     -32.58380000     -73.89370000
C      -45.56530000     -32.97250000     -75.24040000
C      -46.90090000     -33.18140000     -73.32270000
H      -44.78710000     -32.70900000     -75.98840000
C      -47.61970000     -33.95460000     -74.24430000
C      -47.47360000     -33.15040000     -71.98890000
C      -48.55110000     -34.03310000     -71.94000000
S      -46.80340000     -34.05400000     -75.77280000
S      -48.92730000     -34.83480000     -73.42730000
H      -49.19470000     -34.12570000     -71.02100000
