40
Properties=species:S:1:pos:R:3 #=T CELL(abcABC):=T 1.889726e+02=T 90.00000=T Traj:=T positionsangstrom=T Step:=T 0=T Bead:=T pbc="F F F"
C      -44.02650000     -35.06230000     -67.85300000
C      -44.16840000     -33.66800000     -67.81670000
C      -43.28940000     -32.86000000     -68.65260000
C      -42.30030000     -33.47280000     -69.45760000
C      -42.22580000     -34.88040000     -69.49610000
C      -43.11430000     -35.62690000     -68.76810000
H      -44.47940000     -35.69340000     -67.06880000
H      -43.35810000     -31.77210000     -68.70130000
H      -41.77630000     -35.37600000     -70.34070000
H      -43.10260000     -36.69910000     -68.78920000
C      -41.28780000     -32.77660000     -70.32930000
H      -40.61630000     -33.46970000     -70.84250000
H      -40.65600000     -32.24120000     -69.63480000
C      -45.17690000     -32.95550000     -67.00150000
H      -45.65500000     -33.59280000     -66.20280000
H      -44.55190000     -32.12040000     -66.58660000
S      -42.12640000     -31.63360000     -71.51190000
S      -46.55550000     -32.29750000     -68.01060000
C      -43.18740000     -32.88340000     -72.47860000
H      -42.61710000     -33.26730000     -73.30320000
H      -43.61410000     -33.61300000     -71.68720000
C      -46.67050000     -33.43750000     -69.46320000
H      -47.54280000     -34.11010000     -69.28110000
H      -45.78140000     -34.03920000     -69.69100000
C      -47.09930000     -32.49630000     -70.67860000
H      -48.01350000     -31.93960000     -70.44320000
H      -46.25880000     -31.79510000     -70.90720000
C      -44.40230000     -32.06980000     -73.04830000
H      -44.07650000     -31.17210000     -73.64380000
H      -44.83070000     -31.61030000     -72.13490000
C      -45.46010000     -32.91400000     -73.72010000
C      -45.34400000     -33.25650000     -75.04140000
C      -46.72160000     -33.43580000     -73.21030000
H      -44.53920000     -32.96360000     -75.66600000
C      -47.46380000     -34.13970000     -74.12970000
C      -47.48820000     -33.29360000     -71.92410000
C      -48.69590000     -33.88340000     -72.06400000
S      -46.70950000     -34.14150000     -75.68990000
S      -49.07260000     -34.66180000     -73.61260000
H      -49.38240000     -33.87340000     -71.28850000
