40
Properties=species:S:1:pos:R:3 #=T CELL(abcABC):=T 1.889726e+02=T 90.00000=T Traj:=T positionsangstrom=T Step:=T 0=T Bead:=T pbc="F F F"
C      -43.44400000     -35.13310000     -67.28820000
C      -43.95150000     -33.95080000     -67.76190000
C      -43.37620000     -33.39460000     -68.94240000
C      -42.26360000     -33.87080000     -69.61710000
C      -41.75850000     -35.11070000     -69.08280000
C      -42.33400000     -35.71920000     -67.94690000
H      -43.77750000     -35.61520000     -66.36970000
H      -43.82800000     -32.51470000     -69.32420000
H      -40.84070000     -35.56030000     -69.58140000
H      -41.97290000     -36.73650000     -67.67220000
C      -41.56610000     -33.15760000     -70.73660000
H      -41.29100000     -33.93040000     -71.51310000
H      -40.58530000     -32.83520000     -70.39130000
C      -45.24060000     -33.31660000     -67.12860000
H      -45.83450000     -34.17760000     -66.93990000
H      -45.07320000     -32.65610000     -66.21900000
S      -42.52610000     -31.72360000     -71.38470000
S      -45.96230000     -32.02850000     -68.24080000
C      -43.87030000     -32.56250000     -72.39820000
H      -43.35050000     -33.24900000     -73.04650000
H      -44.58560000     -32.95900000     -71.68440000
C      -46.72180000     -33.13950000     -69.55380000
H      -47.62440000     -33.65000000     -69.17260000
H      -45.99040000     -33.83840000     -69.83950000
C      -47.15820000     -32.35320000     -70.75410000
H      -48.01950000     -31.70140000     -70.49340000
H      -46.33540000     -31.64890000     -71.04350000
C      -44.76590000     -31.66510000     -73.25950000
H      -44.08440000     -31.17340000     -73.98750000
H      -45.36310000     -30.95930000     -72.62600000
C      -45.73830000     -32.57130000     -73.96130000
C      -45.64500000     -32.94660000     -75.29830000
C      -46.86910000     -33.17750000     -73.26800000
H      -44.91240000     -32.67130000     -76.07110000
C      -47.52780000     -34.02450000     -74.16030000
C      -47.51610000     -33.15070000     -72.00280000
C      -48.69540000     -33.87950000     -71.96360000
S      -46.89630000     -34.09130000     -75.75140000
S      -48.90000000     -34.87040000     -73.42760000
H      -49.27470000     -33.99990000     -70.99710000
