40
Properties=species:S:1:pos:R:3 #=T CELL(abcABC):=T 1.889726e+02=T 90.00000=T Traj:=T positionsangstrom=T Step:=T 0=T Bead:=T pbc="F F F"
C      -45.39640000     -34.83030000     -68.96490000
C      -44.98740000     -33.61180000     -68.41130000
C      -43.72970000     -33.05570000     -68.76110000
C      -42.82800000     -33.62840000     -69.66560000
C      -43.26090000     -34.87120000     -70.22660000
C      -44.48160000     -35.46790000     -69.86050000
H      -46.23530000     -35.37620000     -68.64650000
H      -43.43420000     -32.06550000     -68.40900000
H      -42.67720000     -35.43090000     -71.01650000
H      -44.77720000     -36.35940000     -70.42550000
C      -41.55290000     -32.91570000     -70.09620000
H      -40.90930000     -33.62490000     -70.64270000
H      -40.79980000     -32.70060000     -69.27370000
C      -45.91700000     -32.97040000     -67.34540000
H      -46.48500000     -33.84180000     -66.82910000
H      -45.35670000     -32.40840000     -66.59420000
S      -41.80770000     -31.37040000     -71.03230000
S      -47.00490000     -31.61330000     -68.09800000
C      -42.66640000     -32.18710000     -72.48700000
H      -42.39150000     -31.66830000     -73.41470000
H      -42.22120000     -33.20210000     -72.61610000
C      -47.84420000     -32.57830000     -69.46540000
H      -48.89130000     -32.33160000     -69.42620000
H      -47.81380000     -33.69320000     -69.30410000
C      -47.24790000     -32.30080000     -70.85340000
H      -47.69500000     -31.36650000     -71.23050000
H      -46.19420000     -32.18160000     -70.63540000
C      -44.21150000     -32.16430000     -72.34790000
H      -44.54800000     -31.27550000     -72.81030000
H      -44.56450000     -31.98660000     -71.36280000
C      -44.94400000     -33.23770000     -73.11690000
C      -44.37270000     -33.83450000     -74.25600000
C      -46.30850000     -33.60150000     -72.90840000
H      -43.29910000     -33.82340000     -74.52140000
C      -46.68270000     -34.50660000     -73.93760000
C      -47.36260000     -33.29030000     -71.96590000
C      -48.53210000     -33.96820000     -72.35150000
S      -45.49270000     -34.95180000     -75.05270000
S      -48.36700000     -34.89670000     -73.84900000
H      -49.46680000     -34.00150000     -71.78110000
