40
Properties=species:S:1:pos:R:3 #=T CELL(abcABC):=T 1.889726e+02=T 90.00000=T Traj:=T positionsangstrom=T Step:=T 0=T Bead:=T pbc="F F F"
C      -43.22080000     -36.93750000     -72.33690000
C      -42.66820000     -35.71260000     -72.08080000
C      -42.95970000     -34.58020000     -72.83470000
C      -43.68950000     -34.64670000     -74.01850000
C      -44.32590000     -35.94510000     -74.24210000
C      -44.08000000     -37.07410000     -73.41300000
H      -42.94910000     -37.83160000     -71.75100000
H      -42.41690000     -33.63080000     -72.53890000
H      -45.09680000     -35.97910000     -75.01620000
H      -44.59710000     -38.03470000     -73.60080000
C      -43.88640000     -33.50180000     -74.98540000
H      -43.74310000     -33.63980000     -76.03990000
H      -43.18970000     -32.69620000     -74.59550000
C      -41.72760000     -35.48410000     -70.93890000
H      -41.02620000     -36.33590000     -70.84420000
H      -41.13400000     -34.56400000     -71.16810000
S      -45.63020000     -32.94240000     -75.01840000
S      -42.68080000     -35.54000000     -69.32190000
C      -46.22690000     -32.88950000     -73.30590000
H      -47.31070000     -32.76570000     -73.42270000
H      -46.22110000     -33.89060000     -72.83640000
C      -43.81180000     -34.00650000     -69.31000000
H      -43.18090000     -33.13950000     -69.37870000
H      -44.21430000     -34.16260000     -68.29140000
C      -45.09390000     -34.05800000     -70.24260000
H      -44.74310000     -33.58500000     -71.25070000
H      -45.51950000     -35.02760000     -70.43320000
C      -45.70400000     -31.74380000     -72.57440000
H      -45.57200000     -30.90200000     -73.24500000
H      -44.72020000     -31.99240000     -72.09690000
C      -46.64310000     -31.30240000     -71.41770000
C      -47.54270000     -30.29920000     -71.51480000
C      -46.57320000     -31.86310000     -70.11490000
H      -47.55600000     -29.54560000     -72.28100000
C      -47.49570000     -31.25660000     -69.23370000
C      -46.08720000     -33.15270000     -69.58200000
C      -46.60580000     -33.38710000     -68.31050000
S      -48.31650000     -29.90050000     -69.99290000
S      -47.79290000     -32.18250000     -67.79830000
H      -46.42790000     -34.29120000     -67.76510000
