40
Properties=species:S:1:pos:R:3 #=T CELL(abcABC):=T 1.889726e+02=T 90.00000=T Traj:=T positionsangstrom=T Step:=T 0=T Bead:=T pbc="F F F"
C      -43.88680000     -35.10750000     -67.74460000
C      -44.04800000     -33.73050000     -67.86760000
C      -43.13270000     -32.99910000     -68.67680000
C      -42.16180000     -33.68500000     -69.43420000
C      -42.02940000     -35.09230000     -69.30910000
C      -42.85400000     -35.75770000     -68.42760000
H      -44.66530000     -35.67290000     -67.31950000
H      -43.13120000     -31.87270000     -68.64460000
H      -41.08830000     -35.51530000     -69.52600000
H      -42.59260000     -36.79930000     -68.24820000
C      -41.27150000     -32.83740000     -70.38180000
H      -40.63700000     -33.40360000     -71.08140000
H      -40.64140000     -32.17130000     -69.81110000
C      -45.11660000     -33.02810000     -67.05700000
H      -45.63260000     -33.64050000     -66.32440000
H      -44.53030000     -32.29150000     -66.58800000
S      -42.27980000     -31.76560000     -71.52310000
S      -46.47160000     -32.25040000     -68.07110000
C      -43.59370000     -32.78860000     -72.32970000
H      -43.09730000     -33.46910000     -73.02640000
H      -44.11920000     -33.40450000     -71.59120000
C      -46.63580000     -33.31940000     -69.53280000
H      -47.30540000     -34.11160000     -69.35400000
H      -45.68990000     -33.82630000     -69.78610000
C      -47.09040000     -32.42640000     -70.71490000
H      -48.00380000     -31.78930000     -70.36130000
H      -46.25220000     -31.81710000     -70.93370000
C      -44.59460000     -31.88320000     -73.14610000
H      -43.95020000     -31.39500000     -73.90820000
H      -45.04240000     -31.03760000     -72.56880000
C      -45.61820000     -32.69350000     -73.85380000
C      -45.41940000     -33.09620000     -75.16880000
C      -46.78870000     -33.30840000     -73.29250000
H      -44.58700000     -32.91760000     -75.85140000
C      -47.53370000     -34.01420000     -74.16860000
C      -47.44060000     -33.19830000     -71.99070000
C      -48.60300000     -33.90150000     -71.96840000
S      -46.82720000     -34.08100000     -75.75490000
S      -49.01760000     -34.74010000     -73.50590000
H      -49.29980000     -33.87700000     -71.14380000
