40
Properties=species:S:1:pos:R:3 #=T CELL(abcABC):=T 1.889726e+02=T 90.00000=T Traj:=T positionsangstrom=T Step:=T 0=T Bead:=T pbc="F F F"
C      -42.48990000     -30.86760000     -68.97990000
C      -43.38330000     -30.59770000     -70.00700000
C      -43.18850000     -31.14750000     -71.24880000
C      -42.08500000     -31.98010000     -71.50190000
C      -41.13900000     -32.20540000     -70.46720000
C      -41.39560000     -31.66290000     -69.16640000
H      -42.77970000     -30.44790000     -67.99820000
H      -43.90540000     -31.02510000     -72.07860000
H      -40.32270000     -32.87240000     -70.66030000
H      -40.79470000     -32.02250000     -68.27030000
C      -41.89330000     -32.59250000     -72.80640000
H      -40.89300000     -32.25210000     -73.14370000
H      -42.57300000     -32.21920000     -73.54630000
C      -44.53650000     -29.60550000     -69.89330000
H      -44.63750000     -29.35540000     -68.89730000
H      -44.39100000     -28.70800000     -70.46960000
S      -42.00990000     -34.43850000     -72.88110000
S      -46.21420000     -30.16430000     -70.37080000
C      -43.91500000     -34.52890000     -72.94960000
H      -44.47560000     -33.59670000     -72.97420000
H      -44.12110000     -35.09050000     -73.83530000
C      -46.35520000     -31.73230000     -69.38100000
H      -47.32050000     -31.66730000     -69.01860000
H      -45.59320000     -31.78150000     -68.58120000
C      -46.11600000     -32.96670000     -70.23470000
H      -45.27390000     -32.74010000     -70.94180000
H      -45.67000000     -33.73190000     -69.63190000
C      -44.48810000     -35.37220000     -71.80270000
H      -44.34940000     -34.75060000     -70.86550000
H      -43.81010000     -36.34020000     -71.76490000
C      -45.93420000     -35.72070000     -71.94700000
C      -46.30620000     -36.90080000     -72.54090000
C      -47.05630000     -34.90770000     -71.58520000
H      -45.71870000     -37.82390000     -72.77980000
C      -48.25220000     -35.51110000     -71.93140000
C      -47.29400000     -33.61260000     -70.88810000
C      -48.58600000     -33.26240000     -70.79960000
S      -48.08090000     -37.01700000     -72.60820000
S      -49.71950000     -34.42100000     -71.54080000
H      -48.76660000     -32.33090000     -70.33610000
