40
Properties=species:S:1:pos:R:3 #=T CELL(abcABC):=T 1.889726e+02=T 90.00000=T Traj:=T positionsangstrom=T Step:=T 0=T Bead:=T pbc="F F F"
C      -46.10900000     -34.57660000     -69.32220000
C      -45.81240000     -33.40410000     -68.62940000
C      -44.45990000     -32.90470000     -68.59900000
C      -43.39980000     -33.57970000     -69.21170000
C      -43.75850000     -34.77160000     -69.95440000
C      -45.07300000     -35.22270000     -69.96290000
H      -47.19520000     -34.90080000     -69.40760000
H      -44.37750000     -31.95780000     -68.02600000
H      -42.93870000     -35.28400000     -70.42630000
H      -45.30730000     -36.17940000     -70.47550000
C      -41.96100000     -33.08980000     -69.12370000
H      -41.27030000     -33.94010000     -69.26110000
H      -41.75350000     -32.55430000     -68.25130000
C      -46.98980000     -32.74890000     -67.68120000
H      -47.72150000     -33.53600000     -67.49830000
H      -46.49010000     -32.55480000     -66.71990000
S      -41.58160000     -31.91840000     -70.54860000
S      -47.61460000     -31.18910000     -68.40340000
C      -42.34320000     -32.67750000     -72.09270000
H      -41.56720000     -32.62920000     -72.87720000
H      -42.39130000     -33.75810000     -71.86010000
C      -47.96420000     -31.71830000     -70.30120000
H      -48.71340000     -30.87150000     -70.65910000
H      -48.61480000     -32.66310000     -70.35470000
C      -46.83130000     -31.89780000     -71.38650000
H      -46.77820000     -31.01020000     -71.91970000
H      -45.89810000     -32.12340000     -70.83950000
C      -43.69370000     -32.15560000     -72.58530000
H      -43.55890000     -31.27830000     -73.26340000
H      -44.21400000     -31.73940000     -71.76150000
C      -44.45720000     -33.22950000     -73.34860000
C      -43.81360000     -34.05420000     -74.24440000
C      -45.88060000     -33.54740000     -73.17450000
H      -42.72220000     -33.93690000     -74.48990000
C      -46.26680000     -34.62050000     -74.00300000
C      -46.96070000     -33.12890000     -72.26890000
C      -48.10080000     -33.91050000     -72.43680000
S      -44.92790000     -35.32850000     -74.85380000
S      -47.87980000     -35.14810000     -73.70180000
H      -49.05010000     -33.73520000     -71.98340000
