40
Properties=species:S:1:pos:R:3 #=T CELL(abcABC):=T 1.889726e+02=T 90.00000=T Traj:=T positionsangstrom=T Step:=T 0=T Bead:=T pbc="F F F"
C      -42.72720000     -30.78910000     -69.10820000
C      -43.35960000     -30.65000000     -70.40600000
C      -42.75800000     -31.13440000     -71.56650000
C      -41.70950000     -32.07860000     -71.32970000
C      -41.20900000     -32.34400000     -70.07220000
C      -41.60810000     -31.63120000     -68.93120000
H      -43.11500000     -30.22220000     -68.27980000
H      -43.11190000     -30.89310000     -72.50000000
H      -40.56890000     -33.17530000     -69.97030000
H      -40.99820000     -31.77210000     -68.04480000
C      -41.26900000     -32.99240000     -72.45790000
H      -40.21070000     -33.10450000     -72.47320000
H      -41.48420000     -32.55270000     -73.43090000
C      -44.51690000     -29.67730000     -70.51620000
H      -44.48390000     -28.90040000     -69.70720000
H      -44.48000000     -29.16290000     -71.51690000
S      -42.04340000     -34.64110000     -72.24510000
S      -46.26140000     -30.40580000     -70.65040000
C      -43.85200000     -34.53470000     -72.66790000
H      -44.30430000     -33.53040000     -72.46250000
H      -43.88450000     -34.71060000     -73.80960000
C      -46.19000000     -31.69810000     -69.29920000
H      -47.09050000     -31.69780000     -68.65400000
H      -45.31060000     -31.46800000     -68.59610000
C      -45.98170000     -33.16280000     -69.83100000
H      -45.09880000     -33.18120000     -70.48500000
H      -45.85250000     -33.76700000     -68.88060000
C      -44.64700000     -35.51780000     -71.86350000
H      -44.47130000     -35.32410000     -70.82280000
H      -44.27670000     -36.60730000     -72.09510000
C      -46.11300000     -35.62250000     -72.22990000
C      -46.53990000     -36.54980000     -73.08470000
C      -47.15610000     -34.83310000     -71.58350000
H      -45.99600000     -37.31670000     -73.66960000
C      -48.41810000     -35.30720000     -71.97370000
C      -47.20880000     -33.74110000     -70.60570000
C      -48.48990000     -33.28730000     -70.51770000
S      -48.36450000     -36.56420000     -73.15750000
S      -49.65590000     -34.24730000     -71.40020000
H      -48.96350000     -32.67910000     -69.76850000
