40
Properties=species:S:1:pos:R:3 #=T CELL(abcABC):=T 1.889726e+02=T 90.00000=T Traj:=T positionsangstrom=T Step:=T 0=T Bead:=T pbc="F F F"
C      -43.35510000     -36.91370000     -72.36930000
C      -42.66200000     -35.75860000     -72.10790000
C      -42.72800000     -34.69780000     -73.03200000
C      -43.64610000     -34.65090000     -74.15680000
C      -44.33370000     -35.85040000     -74.40500000
C      -44.15290000     -36.97720000     -73.50530000
H      -43.16420000     -37.81070000     -71.77660000
H      -42.12340000     -33.84230000     -72.80280000
H      -44.82130000     -35.92170000     -75.40570000
H      -44.57460000     -37.84420000     -73.88690000
C      -43.81330000     -33.36320000     -75.04480000
H      -43.41700000     -33.48950000     -76.08340000
H      -43.09820000     -32.68710000     -74.59850000
C      -41.79550000     -35.59960000     -70.85930000
H      -41.11610000     -36.44180000     -70.71530000
H      -41.14580000     -34.76380000     -71.02120000
S      -45.64390000     -32.85330000     -75.15640000
S      -42.79040000     -35.73240000     -69.24110000
C      -46.04430000     -32.70500000     -73.31230000
H      -47.11680000     -32.83400000     -73.34100000
H      -45.44460000     -33.50850000     -72.81820000
C      -43.69960000     -34.11260000     -69.14380000
H      -43.04740000     -33.24290000     -69.33250000
H      -44.09850000     -34.00690000     -68.10950000
C      -44.88430000     -33.93900000     -70.15100000
H      -44.54000000     -33.46920000     -71.12330000
H      -45.24850000     -34.93300000     -70.38510000
C      -45.66100000     -31.39470000     -72.55550000
H      -45.78010000     -30.59070000     -73.26590000
H      -44.61210000     -31.46560000     -72.26660000
C      -46.55060000     -31.13810000     -71.31180000
C      -47.30060000     -30.01610000     -71.26790000
C      -46.81030000     -32.04570000     -70.21930000
H      -47.06060000     -29.25040000     -72.03130000
C      -47.76900000     -31.50810000     -69.32190000
C      -46.06360000     -33.11810000     -69.55940000
C      -46.58250000     -33.38510000     -68.31380000
S      -48.46910000     -29.99530000     -69.90700000
S      -47.79660000     -32.29050000     -67.75780000
H      -46.15850000     -34.11860000     -67.64660000
