40
Properties=species:S:1:pos:R:3 #=T CELL(abcABC):=T 1.889726e+02=T 90.00000=T Traj:=T positionsangstrom=T Step:=T 0=T Bead:=T pbc="F F F"
C      -45.95660000     -34.88230000     -69.15390000
C      -45.72870000     -33.64570000     -68.47400000
C      -44.45530000     -33.07350000     -68.61110000
C      -43.33920000     -33.58530000     -69.34380000
C      -43.61850000     -34.76870000     -70.03280000
C      -44.90990000     -35.37440000     -69.95920000
H      -46.92610000     -35.41950000     -69.08490000
H      -44.17970000     -32.10390000     -68.09940000
H      -42.91700000     -35.22490000     -70.76340000
H      -45.00930000     -36.30310000     -70.45090000
C      -41.99670000     -32.95170000     -69.36990000
H      -41.24100000     -33.74180000     -69.34440000
H      -41.69300000     -32.36580000     -68.46090000
C      -46.90370000     -32.85390000     -67.77650000
H      -47.79990000     -33.52770000     -67.71210000
H      -46.67920000     -32.58040000     -66.78890000
S      -41.57190000     -31.75240000     -70.82480000
S      -47.33880000     -31.26140000     -68.59980000
C      -42.29650000     -32.57160000     -72.25590000
H      -41.72330000     -32.24570000     -73.10400000
H      -42.19500000     -33.69520000     -72.18810000
C      -48.02380000     -31.96240000     -70.23470000
H      -48.85520000     -31.34910000     -70.48580000
H      -48.36210000     -32.92860000     -70.03120000
C      -46.91960000     -32.03030000     -71.21150000
H      -46.64040000     -31.03370000     -71.70520000
H      -46.06200000     -32.37860000     -70.59510000
C      -43.73010000     -32.14650000     -72.47170000
H      -43.85650000     -31.14090000     -72.90420000
H      -44.14630000     -31.95700000     -71.47900000
C      -44.62330000     -33.11030000     -73.26050000
C      -43.96680000     -33.96090000     -74.17430000
C      -45.93180000     -33.56530000     -72.96790000
H      -42.95260000     -33.85370000     -74.57700000
C      -46.33070000     -34.63320000     -73.78370000
C      -47.05100000     -33.06070000     -72.23070000
C      -48.22070000     -33.80950000     -72.36760000
S      -45.01910000     -35.16990000     -74.79520000
S      -48.03060000     -35.09370000     -73.54030000
H      -49.19040000     -33.64900000     -71.97290000
