40
Properties=species:S:1:pos:R:3 #=T CELL(abcABC):=T 1.889726e+02=T 90.00000=T Traj:=T positionsangstrom=T Step:=T 0=T Bead:=T pbc="F F F"
C      -46.67810000     -33.56620000     -68.72030000
C      -46.09110000     -32.28830000     -68.53700000
C      -44.67560000     -32.12600000     -68.61990000
C      -43.85400000     -33.25340000     -68.73070000
C      -44.42290000     -34.54150000     -68.78560000
C      -45.78400000     -34.67350000     -68.87960000
H      -47.75070000     -33.72060000     -68.74350000
H      -44.24730000     -31.14120000     -68.58240000
H      -43.71050000     -35.33080000     -68.64620000
H      -46.26310000     -35.65110000     -68.95530000
C      -42.35420000     -33.04090000     -68.56720000
H      -41.88960000     -33.94540000     -68.11940000
H      -42.27130000     -32.36270000     -67.65820000
C      -46.96150000     -31.04390000     -68.27250000
H      -47.65490000     -31.23660000     -67.42480000
H      -46.23140000     -30.18240000     -68.01260000
S      -41.46980000     -32.27200000     -70.03420000
S      -47.86130000     -30.48530000     -69.73840000
C      -42.21240000     -33.51460000     -71.30250000
H      -41.48350000     -33.61210000     -72.11230000
H      -42.34020000     -34.45250000     -70.85890000
C      -47.97110000     -31.96930000     -70.92170000
H      -48.96300000     -31.99490000     -71.49180000
H      -48.22350000     -32.82620000     -70.33560000
C      -46.76540000     -32.14160000     -71.81750000
H      -46.75700000     -31.30150000     -72.43270000
H      -45.90380000     -32.10860000     -71.13870000
C      -43.45270000     -32.98140000     -72.01990000
H      -43.20090000     -31.95040000     -72.32950000
H      -44.20710000     -32.77820000     -71.21840000
C      -44.12860000     -34.01120000     -73.00250000
C      -43.47950000     -34.92230000     -73.75180000
C      -45.59570000     -34.03500000     -73.21220000
H      -42.37840000     -34.89770000     -73.83400000
C      -45.94390000     -35.09160000     -74.08760000
C      -46.75620000     -33.35610000     -72.76400000
C      -47.91410000     -33.85300000     -73.26290000
S      -44.54200000     -35.90220000     -74.69450000
S      -47.63850000     -35.28830000     -74.35180000
H      -48.86380000     -33.46320000     -73.05890000
