40
Properties=species:S:1:pos:R:3 #=T CELL(abcABC):=T 1.889726e+02=T 90.00000=T Traj:=T positionsangstrom=T Step:=T 0=T Bead:=T pbc="F F F"
C      -43.37250000     -36.86600000     -72.49520000
C      -42.79820000     -35.66560000     -72.13700000
C      -42.90760000     -34.55580000     -73.00130000
C      -43.64570000     -34.62530000     -74.20840000
C      -44.36360000     -35.79640000     -74.46920000
C      -44.19470000     -36.91470000     -73.63360000
H      -43.40890000     -37.68710000     -71.78230000
H      -42.40720000     -33.59010000     -72.84880000
H      -45.04420000     -35.78900000     -75.34180000
H      -44.79980000     -37.76580000     -73.83160000
C      -43.67730000     -33.44120000     -75.05700000
H      -43.60340000     -33.66120000     -76.11800000
H      -42.87000000     -32.75210000     -74.81050000
C      -41.87950000     -35.64410000     -70.88170000
H      -41.15720000     -36.52410000     -70.88920000
H      -41.42310000     -34.64400000     -70.76600000
S      -45.37540000     -32.62750000     -74.93680000
S      -42.94900000     -35.82600000     -69.45540000
C      -46.17970000     -32.60340000     -73.24870000
H      -47.24320000     -32.48950000     -73.50270000
H      -46.08590000     -33.53350000     -72.71630000
C      -43.73970000     -34.21350000     -69.14310000
H      -42.84520000     -33.52820000     -69.15580000
H      -44.04170000     -34.22120000     -68.13480000
C      -44.79140000     -33.90090000     -70.14250000
H      -44.42540000     -33.53430000     -71.02920000
H      -45.28110000     -34.86830000     -70.51620000
C      -45.65890000     -31.35800000     -72.51050000
H      -45.52900000     -30.49060000     -73.18790000
H      -44.60980000     -31.49800000     -72.27100000
C      -46.52530000     -31.06490000     -71.25990000
C      -47.44840000     -30.08980000     -71.23210000
C      -46.63260000     -31.95980000     -70.07780000
H      -47.63940000     -29.48480000     -72.15030000
C      -47.54450000     -31.41680000     -69.16340000
C      -45.94880000     -33.08690000     -69.54120000
C      -46.49020000     -33.51190000     -68.37120000
S      -48.44730000     -30.03530000     -69.79650000
S      -47.88540000     -32.54540000     -67.88870000
H      -46.15950000     -34.44920000     -67.83580000
