40
Properties=species:S:1:pos:R:3 #=T CELL(abcABC):=T 1.889726e+02=T 90.00000=T Traj:=T positionsangstrom=T Step:=T 0=T Bead:=T pbc="F F F"
C      -46.87200000     -33.14000000     -68.31250000
C      -46.34250000     -31.77580000     -68.57290000
C      -44.91770000     -31.59710000     -68.68940000
C      -44.02310000     -32.64520000     -68.39610000
C      -44.56650000     -33.92630000     -68.12980000
C      -45.96000000     -34.16130000     -68.05250000
H      -47.94880000     -33.27730000     -68.36980000
H      -44.52500000     -30.57710000     -68.82000000
H      -43.92420000     -34.81980000     -68.05670000
H      -46.31630000     -35.21370000     -67.82800000
C      -42.51350000     -32.48630000     -68.54140000
H      -42.01680000     -33.42320000     -68.13360000
H      -42.11660000     -31.64100000     -68.00280000
C      -47.26030000     -30.61410000     -68.80540000
H      -48.25940000     -30.88810000     -68.35660000
H      -46.93480000     -29.75800000     -68.26770000
S      -41.90350000     -32.19100000     -70.30050000
S      -47.43260000     -30.14370000     -70.58270000
C      -42.82930000     -33.55330000     -71.07480000
H      -42.21890000     -34.46000000     -71.13170000
H      -43.76580000     -33.75110000     -70.54960000
C      -47.74490000     -31.77120000     -71.38910000
H      -48.54310000     -31.55740000     -72.12670000
H      -48.15220000     -32.48370000     -70.72350000
C      -46.48950000     -32.29890000     -72.11280000
H      -46.03360000     -31.54610000     -72.81640000
H      -45.71510000     -32.41070000     -71.37020000
C      -43.13890000     -33.18870000     -72.56260000
H      -42.18390000     -33.08250000     -73.09080000
H      -43.51690000     -32.21270000     -72.77170000
C      -43.93640000     -34.29290000     -73.15320000
C      -43.30390000     -35.42070000     -73.60210000
C      -45.39330000     -34.36340000     -73.28690000
H      -42.24460000     -35.71730000     -73.65580000
C      -45.85870000     -35.56180000     -73.81660000
C      -46.57400000     -33.62250000     -72.72660000
C      -47.78150000     -34.25970000     -72.98370000
S      -44.42480000     -36.53220000     -74.33110000
S      -47.54920000     -35.79710000     -73.93640000
H      -48.78890000     -33.97140000     -72.80290000
