40
Properties=species:S:1:pos:R:3 #=T CELL(abcABC):=T 1.889726e+02=T 90.00000=T Traj:=T positionsangstrom=T Step:=T 0=T Bead:=T pbc="F F F"
C      -46.77450000     -33.12940000     -68.34960000
C      -46.27450000     -31.82480000     -68.56140000
C      -44.85180000     -31.62370000     -68.66620000
C      -43.99730000     -32.71120000     -68.46890000
C      -44.48710000     -34.00690000     -68.43970000
C      -45.84000000     -34.22230000     -68.35310000
H      -47.79060000     -33.26860000     -68.10570000
H      -44.54200000     -30.57780000     -68.79460000
H      -43.75150000     -34.78620000     -68.20210000
H      -46.22440000     -35.26770000     -68.15430000
C      -42.54220000     -32.42030000     -68.45650000
H      -41.98180000     -33.24150000     -68.05570000
H      -42.19910000     -31.55120000     -67.94680000
C      -47.25250000     -30.63110000     -68.64380000
H      -48.14580000     -30.78140000     -68.05820000
H      -46.74460000     -29.76880000     -68.16210000
S      -42.01450000     -31.99020000     -70.22020000
S      -47.58090000     -30.21500000     -70.45680000
C      -42.59290000     -33.47530000     -71.13760000
H      -41.83910000     -34.26810000     -71.08040000
H      -43.47540000     -33.83920000     -70.55710000
C      -47.76020000     -31.86520000     -71.29070000
H      -48.49760000     -31.66110000     -72.17610000
H      -48.18340000     -32.67350000     -70.68560000
C      -46.41590000     -32.42460000     -71.87960000
H      -45.90620000     -31.59760000     -72.40050000
H      -45.73420000     -32.54100000     -71.02950000
C      -43.19730000     -33.15520000     -72.57850000
H      -42.46460000     -32.84960000     -73.37320000
H      -43.91310000     -32.37480000     -72.39650000
C      -43.91290000     -34.37860000     -73.12350000
C      -43.27860000     -35.44490000     -73.79150000
C      -45.39430000     -34.48140000     -73.19530000
H      -42.25120000     -35.53090000     -73.99320000
C      -45.84600000     -35.60490000     -73.85700000
C      -46.45170000     -33.65760000     -72.67780000
C      -47.68190000     -34.09360000     -73.23380000
S      -44.49150000     -36.65370000     -74.27030000
S      -47.60830000     -35.64140000     -74.03910000
H      -48.68560000     -33.80400000     -73.01440000
