40
Properties=species:S:1:pos:R:3 #=T CELL(abcABC):=T 1.889726e+02=T 90.00000=T Traj:=T positionsangstrom=T Step:=T 0=T Bead:=T pbc="F F F"
C      -41.93050000     -31.08460000     -70.18140000
C      -42.97930000     -30.72100000     -71.04820000
C      -43.08480000     -31.38190000     -72.29880000
C      -42.29570000     -32.44920000     -72.78370000
C      -41.33960000     -32.90020000     -71.81860000
C      -41.20080000     -32.20500000     -70.57470000
H      -41.73840000     -30.69640000     -69.19510000
H      -43.98510000     -31.09670000     -72.88030000
H      -40.72150000     -33.72490000     -72.06030000
H      -40.33630000     -32.58310000     -70.01470000
C      -42.50430000     -33.25120000     -74.05610000
H      -41.58310000     -33.00460000     -74.57120000
H      -43.39360000     -33.08610000     -74.67750000
C      -44.03230000     -29.72480000     -70.68670000
H      -43.86200000     -29.29520000     -69.76330000
H      -43.93750000     -28.99700000     -71.52930000
S      -42.58600000     -35.10010000     -73.79140000
S      -45.78450000     -30.37690000     -70.60630000
C      -44.39420000     -35.43450000     -73.49260000
H      -44.84670000     -35.12360000     -74.36930000
H      -44.22860000     -36.55820000     -73.42400000
C      -45.62690000     -31.44330000     -69.13570000
H      -46.50000000     -31.32140000     -68.46970000
H      -44.71750000     -31.20820000     -68.58670000
C      -45.43630000     -32.96330000     -69.47880000
H      -44.74020000     -32.90940000     -70.36420000
H      -44.88610000     -33.49290000     -68.64390000
C      -44.99140000     -34.74550000     -72.26360000
H      -44.80660000     -33.68280000     -72.36460000
H      -44.40570000     -35.10300000     -71.36450000
C      -46.41060000     -35.09850000     -71.92290000
C      -47.23100000     -35.92920000     -72.56800000
C      -47.08200000     -34.44550000     -70.78690000
H      -47.13020000     -36.55700000     -73.45640000
C      -48.38950000     -34.91710000     -70.67750000
C      -46.76310000     -33.55280000     -69.66180000
C      -47.80680000     -33.38420000     -68.79720000
S      -48.86180000     -35.97630000     -71.98630000
S      -49.18950000     -34.33520000     -69.23480000
H      -47.84110000     -32.89300000     -67.87480000
