40
Properties=species:S:1:pos:R:3 #=T CELL(abcABC):=T 1.889726e+02=T 90.00000=T Traj:=T positionsangstrom=T Step:=T 0=T Bead:=T pbc="F F F"
C      -47.61740000     -31.36440000     -68.10610000
C      -46.19700000     -31.58690000     -68.18390000
C      -45.37130000     -30.93000000     -69.08730000
C      -45.96550000     -30.08200000     -70.08590000
C      -47.39880000     -29.93110000     -70.14320000
C      -48.17770000     -30.48910000     -69.07640000
H      -48.25130000     -32.02560000     -67.42180000
H      -44.35220000     -31.19960000     -69.14920000
H      -47.89320000     -29.36350000     -70.90160000
H      -49.29670000     -30.50360000     -69.13640000
C      -45.06190000     -29.36590000     -71.05210000
H      -44.04640000     -29.64830000     -70.68100000
H      -45.07170000     -28.27800000     -71.11610000
C      -45.64600000     -32.66740000     -67.32270000
H      -44.53500000     -32.64300000     -67.34900000
H      -45.90830000     -32.47160000     -66.28970000
S      -45.32110000     -29.91950000     -72.78570000
S      -46.13960000     -34.44470000     -67.75800000
C      -45.54380000     -31.78670000     -72.80830000
H      -46.33550000     -32.12350000     -72.05680000
H      -45.90870000     -32.08860000     -73.78510000
C      -45.05210000     -34.68330000     -69.23320000
H      -44.53660000     -35.66970000     -69.11150000
H      -44.20460000     -33.97870000     -69.34950000
C      -45.96580000     -34.72920000     -70.54890000
H      -46.91390000     -35.16540000     -70.18490000
H      -46.21170000     -33.65050000     -70.83450000
C      -44.28920000     -32.53720000     -72.43740000
H      -44.17680000     -32.81090000     -71.41450000
H      -43.37570000     -31.91560000     -72.62820000
C      -44.11510000     -33.82250000     -73.23720000
C      -43.50470000     -33.84470000     -74.45450000
C      -44.53470000     -35.11810000     -72.74180000
H      -43.04790000     -32.96300000     -74.89390000
C      -44.20440000     -36.11980000     -73.61200000
C      -45.28870000     -35.57940000     -71.60080000
C      -45.42530000     -36.91280000     -71.65310000
S      -43.38170000     -35.51610000     -75.02840000
S      -44.80610000     -37.66540000     -73.12380000
H      -46.08830000     -37.56350000     -71.02190000
