40
Properties=species:S:1:pos:R:3 #=T CELL(abcABC):=T 1.889726e+02=T 90.00000=T Traj:=T positionsangstrom=T Step:=T 0=T Bead:=T pbc="F F F"
C      -42.29780000     -31.36070000     -70.40670000
C      -43.22560000     -30.80270000     -71.28190000
C      -43.33740000     -31.42740000     -72.56230000
C      -42.62550000     -32.59070000     -72.91750000
C      -41.68230000     -33.11180000     -71.96330000
C      -41.49970000     -32.44640000     -70.73260000
H      -42.20410000     -30.98280000     -69.37770000
H      -44.15460000     -31.08840000     -73.27480000
H      -41.04850000     -33.89770000     -72.32460000
H      -40.67220000     -32.76000000     -70.04610000
C      -42.77400000     -33.18830000     -74.29520000
H      -41.96670000     -33.07340000     -75.03030000
H      -43.65280000     -32.62890000     -74.65590000
C      -43.99480000     -29.54070000     -70.98860000
H      -43.24120000     -28.85480000     -70.43190000
H      -44.14500000     -29.03060000     -71.98330000
S      -42.96140000     -35.01130000     -74.36970000
S      -45.62130000     -29.72890000     -70.19440000
C      -44.54080000     -35.52490000     -73.59550000
H      -45.43030000     -35.30760000     -74.33300000
H      -44.52980000     -36.58120000     -73.51680000
C      -45.29910000     -31.24960000     -69.06660000
H      -45.96020000     -31.13350000     -68.18230000
H      -44.35270000     -30.99990000     -68.58800000
C      -45.36420000     -32.66150000     -69.67950000
H      -44.73060000     -32.80750000     -70.60070000
H      -44.81060000     -33.28940000     -68.92600000
C      -44.82470000     -34.86280000     -72.23990000
H      -44.66110000     -33.78310000     -72.41810000
H      -44.12310000     -35.28060000     -71.53320000
C      -46.26850000     -35.19690000     -71.80570000
C      -46.95700000     -36.35630000     -72.07090000
C      -46.95190000     -34.50480000     -70.72780000
H      -46.56080000     -37.04680000     -72.86270000
C      -48.18250000     -35.03260000     -70.46500000
C      -46.68580000     -33.39530000     -69.85730000
C      -47.74570000     -33.08620000     -68.99970000
S      -48.48680000     -36.57170000     -71.27850000
S      -49.05780000     -34.22820000     -69.15730000
H      -47.75110000     -32.25500000     -68.26030000
