40
Properties=species:S:1:pos:R:3 #=T CELL(abcABC):=T 1.889726e+02=T 90.00000=T Traj:=T positionsangstrom=T Step:=T 0=T Bead:=T pbc="F F F"
C      -41.94770000     -30.42710000     -71.23500000
C      -43.18070000     -30.44500000     -71.85840000
C      -43.33010000     -31.25690000     -73.02440000
C      -42.39160000     -32.18200000     -73.41100000
C      -41.12050000     -32.15330000     -72.78160000
C      -40.92200000     -31.25550000     -71.77650000
H      -41.67130000     -29.73200000     -70.45230000
H      -44.34240000     -31.28230000     -73.56480000
H      -40.50780000     -32.90600000     -73.03730000
H      -39.86960000     -31.22370000     -71.29750000
C      -42.76380000     -33.14090000     -74.48700000
H      -41.87980000     -33.33830000     -75.11330000
H      -43.55650000     -32.77850000     -75.11890000
C      -44.37440000     -29.63490000     -71.36770000
H      -44.11940000     -28.94320000     -70.53970000
H      -44.82070000     -28.98470000     -72.12290000
S      -43.29750000     -34.78970000     -73.77080000
S      -45.72330000     -30.75140000     -70.78080000
C      -44.90060000     -34.59560000     -72.96330000
H      -45.03430000     -33.64160000     -72.53690000
H      -45.71650000     -34.88860000     -73.69740000
C      -44.86140000     -31.66540000     -69.42160000
H      -45.27760000     -31.31970000     -68.49550000
H      -43.79650000     -31.40180000     -69.38930000
C      -45.03400000     -33.12160000     -69.68640000
H      -44.64790000     -33.28180000     -70.68700000
H      -44.39060000     -33.72900000     -69.05910000
C      -44.97200000     -35.68660000     -71.87780000
H      -44.13520000     -35.43230000     -71.21560000
H      -44.78690000     -36.59320000     -72.41310000
C      -46.28660000     -35.77560000     -71.11620000
C      -47.11820000     -36.83280000     -71.43630000
C      -46.91950000     -34.85880000     -70.22140000
H      -46.80180000     -37.58290000     -72.04790000
C      -48.27210000     -35.16020000     -69.95030000
C      -46.46530000     -33.63590000     -69.65620000
C      -47.49870000     -33.04750000     -68.95220000
S      -48.73710000     -36.74410000     -70.70130000
S      -49.11540000     -33.85710000     -69.06870000
H      -47.52530000     -32.02700000     -68.45510000
