40
Properties=species:S:1:pos:R:3 #=T CELL(abcABC):=T 1.889726e+02=T 90.00000=T Traj:=T positionsangstrom=T Step:=T 0=T Bead:=T pbc="F F F"
C      -42.00480000     -30.14930000     -71.89190000
C      -43.34620000     -30.46740000     -72.06180000
C      -43.67500000     -31.52610000     -72.87610000
C      -42.66370000     -32.30240000     -73.47250000
C      -41.29700000     -32.10050000     -73.15350000
C      -41.00050000     -30.94940000     -72.39420000
H      -41.72190000     -29.45770000     -71.10230000
H      -44.65850000     -31.74230000     -73.08720000
H      -40.43970000     -32.75860000     -73.50830000
H      -39.98100000     -30.80300000     -72.12360000
C      -42.96340000     -33.42680000     -74.39370000
H      -42.21240000     -33.44900000     -75.18940000
H      -44.00300000     -33.31240000     -74.82430000
C      -44.43150000     -29.63510000     -71.41940000
H      -44.01440000     -28.90670000     -70.72100000
H      -44.99700000     -29.01820000     -72.16460000
S      -43.05800000     -35.15390000     -73.67130000
S      -45.81620000     -30.64940000     -70.61900000
C      -44.63190000     -34.85110000     -72.78020000
H      -44.64890000     -33.75530000     -72.45640000
H      -45.48340000     -34.84030000     -73.44090000
C      -44.94710000     -31.52540000     -69.22440000
H      -45.59210000     -31.34120000     -68.31960000
H      -43.92610000     -31.15390000     -69.12340000
C      -44.90120000     -33.06800000     -69.50760000
H      -44.31800000     -33.24030000     -70.40740000
H      -44.30450000     -33.51690000     -68.72990000
C      -44.86250000     -35.97150000     -71.67270000
H      -44.15050000     -35.90640000     -70.84330000
H      -44.63130000     -36.92380000     -72.13930000
C      -46.25120000     -35.84970000     -71.12480000
C      -47.25260000     -36.73960000     -71.47440000
C      -46.83150000     -34.79850000     -70.31220000
H      -47.11680000     -37.65650000     -72.10760000
C      -48.15850000     -35.00630000     -69.99650000
C      -46.30890000     -33.62850000     -69.52800000
C      -47.34730000     -33.02730000     -68.77520000
S      -48.85520000     -36.43480000     -70.83160000
S      -48.93540000     -33.81950000     -68.91350000
H      -47.17200000     -32.24460000     -68.10650000
