40
Properties=species:S:1:pos:R:3 #=T CELL(abcABC):=T 1.889726e+02=T 90.00000=T Traj:=T positionsangstrom=T Step:=T 0=T Bead:=T pbc="F F F"
C      -41.95240000     -30.29070000     -71.47050000
C      -43.30140000     -30.46390000     -71.92620000
C      -43.55430000     -31.43950000     -72.91370000
C      -42.54100000     -32.21360000     -73.43700000
C      -41.17330000     -31.96530000     -73.05200000
C      -40.91860000     -31.03000000     -71.99220000
H      -41.72250000     -29.48300000     -70.87180000
H      -44.55210000     -31.62430000     -73.37840000
H      -40.32660000     -32.38470000     -73.53410000
H      -39.87060000     -30.82010000     -71.70280000
C      -42.85740000     -33.25710000     -74.47280000
H      -41.85270000     -33.34270000     -75.05190000
H      -43.59450000     -32.98990000     -75.19560000
C      -44.44400000     -29.59350000     -71.41580000
H      -44.07000000     -28.84600000     -70.65730000
H      -44.94780000     -29.08970000     -72.17680000
S      -43.24660000     -34.94700000     -73.83880000
S      -45.71530000     -30.75660000     -70.75420000
C      -44.76850000     -34.78950000     -72.80210000
H      -44.83510000     -33.72120000     -72.33360000
H      -45.60790000     -34.80780000     -73.46930000
C      -44.70270000     -31.65330000     -69.46050000
H      -45.14470000     -31.25740000     -68.53240000
H      -43.60280000     -31.41640000     -69.47130000
C      -44.94930000     -33.16450000     -69.48460000
H      -44.39340000     -33.61710000     -70.28960000
H      -44.53790000     -33.68530000     -68.53320000
C      -44.81620000     -35.84990000     -71.66760000
H      -44.10630000     -35.59000000     -70.80750000
H      -44.61070000     -36.83220000     -72.03990000
C      -46.25250000     -35.88690000     -71.07570000
C      -47.22340000     -36.80580000     -71.45920000
C      -46.87020000     -34.87170000     -70.18380000
H      -46.93400000     -37.51190000     -72.19680000
C      -48.21510000     -35.07430000     -69.96170000
C      -46.42500000     -33.61340000     -69.58870000
C      -47.48180000     -32.97200000     -68.92330000
S      -48.85880000     -36.52540000     -70.70120000
S      -49.04120000     -33.88970000     -69.02620000
H      -47.48810000     -32.10910000     -68.27820000
