40
Properties=species:S:1:pos:R:3 #=T CELL(abcABC):=T 1.889726e+02=T 90.00000=T Traj:=T positionsangstrom=T Step:=T 0=T Bead:=T pbc="F F F"
C      -42.20780000     -30.10860000     -72.19550000
C      -43.53600000     -30.58390000     -72.40930000
C      -43.68450000     -31.72020000     -73.14550000
C      -42.57220000     -32.40870000     -73.67390000
C      -41.29070000     -31.94170000     -73.44590000
C      -41.09360000     -30.77070000     -72.68060000
H      -42.13430000     -29.19490000     -71.56900000
H      -44.68230000     -32.10490000     -73.37530000
H      -40.43110000     -32.36350000     -73.93650000
H      -40.07780000     -30.41400000     -72.48070000
C      -42.78780000     -33.70410000     -74.37160000
H      -41.88310000     -33.94450000     -75.01550000
H      -43.67970000     -33.53290000     -75.05450000
C      -44.73810000     -29.81030000     -71.91620000
H      -44.47720000     -28.79160000     -71.55040000
H      -45.36410000     -29.64940000     -72.76430000
S      -42.78370000     -35.07090000     -73.10040000
S      -45.73320000     -30.61840000     -70.57130000
C      -44.58110000     -35.33620000     -72.87210000
H      -45.09840000     -34.36840000     -73.03610000
H      -45.00030000     -36.03530000     -73.66380000
C      -44.69120000     -31.66260000     -69.44770000
H      -44.81170000     -31.47320000     -68.37120000
H      -43.62960000     -31.47410000     -69.77250000
C      -44.89980000     -33.16890000     -69.65540000
H      -44.54730000     -33.48140000     -70.61500000
H      -44.25330000     -33.64770000     -68.92640000
C      -44.91750000     -35.92020000     -71.41070000
H      -44.26670000     -35.44640000     -70.70350000
H      -44.73280000     -37.02040000     -71.50140000
C      -46.40100000     -35.70880000     -71.10040000
C      -47.37880000     -36.53080000     -71.54810000
C      -46.92310000     -34.77230000     -70.18390000
H      -47.24480000     -37.39710000     -72.24250000
C      -48.31140000     -34.93870000     -69.87150000
C      -46.35170000     -33.64340000     -69.41880000
C      -47.28670000     -33.06960000     -68.60720000
S      -48.98570000     -36.14250000     -70.91590000
S      -48.87240000     -33.85300000     -68.60900000
H      -47.00180000     -32.28960000     -67.91540000
