40
Properties=species:S:1:pos:R:3 #=T CELL(abcABC):=T 1.889726e+02=T 90.00000=T Traj:=T positionsangstrom=T Step:=T 0=T Bead:=T pbc="F F F"
C      -42.33670000     -29.87560000     -72.25360000
C      -43.59560000     -30.46450000     -72.30950000
C      -43.64680000     -31.80720000     -72.85830000
C      -42.41820000     -32.37830000     -73.26560000
C      -41.24250000     -31.73260000     -73.15500000
C      -41.13710000     -30.43410000     -72.62170000
H      -42.22140000     -28.80400000     -71.84460000
H      -44.52580000     -32.37080000     -72.97450000
H      -40.30290000     -32.28110000     -73.41680000
H      -40.27790000     -29.71960000     -72.63580000
C      -42.54270000     -33.67310000     -74.07330000
H      -41.63190000     -33.90420000     -74.57060000
H      -43.39370000     -33.68110000     -74.87650000
C      -44.84630000     -29.81850000     -71.82670000
H      -44.62590000     -28.94060000     -71.20750000
H      -45.47810000     -29.50430000     -72.65830000
S      -42.77630000     -35.18970000     -73.02560000
S      -45.89320000     -31.00720000     -70.84960000
C      -44.54700000     -35.15700000     -72.62850000
H      -44.82000000     -34.21680000     -72.22730000
H      -45.04320000     -35.49220000     -73.59540000
C      -44.62170000     -31.70620000     -69.66920000
H      -44.83430000     -31.29220000     -68.73250000
H      -43.62500000     -31.31760000     -69.99060000
C      -44.70640000     -33.24770000     -69.64020000
H      -44.34040000     -33.59550000     -70.61500000
H      -44.07290000     -33.79570000     -68.97700000
C      -45.00680000     -36.09440000     -71.53540000
H      -44.41850000     -35.82730000     -70.65230000
H      -44.74900000     -37.19230000     -71.74800000
C      -46.49910000     -35.92420000     -71.09160000
C      -47.51760000     -36.67870000     -71.48200000
C      -46.88260000     -34.83810000     -70.12910000
H      -47.34210000     -37.48490000     -72.24020000
C      -48.28520000     -34.82300000     -70.00300000
C      -46.24360000     -33.70720000     -69.51570000
C      -47.11820000     -32.96660000     -68.80290000
S      -49.08430000     -36.17750000     -70.82340000
S      -48.81430000     -33.52210000     -68.94960000
H      -46.94070000     -32.10860000     -68.18570000
