40
Properties=species:S:1:pos:R:3 #=T CELL(abcABC):=T 1.889726e+02=T 90.00000=T Traj:=T positionsangstrom=T Step:=T 0=T Bead:=T pbc="F F F"
C      -42.39490000     -29.85130000     -72.05260000
C      -43.58130000     -30.48300000     -72.32380000
C      -43.60120000     -31.73910000     -72.98250000
C      -42.41660000     -32.36590000     -73.35330000
C      -41.23190000     -31.68130000     -73.19050000
C      -41.21160000     -30.46340000     -72.52060000
H      -42.25350000     -28.90010000     -71.42310000
H      -44.56190000     -32.12060000     -73.37590000
H      -40.31520000     -31.99810000     -73.67890000
H      -40.23680000     -30.01910000     -72.21810000
C      -42.45920000     -33.71840000     -74.01270000
H      -41.51850000     -33.79230000     -74.53480000
H      -43.16090000     -33.73980000     -74.85320000
C      -44.86910000     -29.92740000     -71.89510000
H      -44.65820000     -29.02310000     -71.23140000
H      -45.47300000     -29.42980000     -72.64540000
S      -42.79780000     -35.24430000     -72.93690000
S      -45.93890000     -31.11750000     -70.98530000
C      -44.64280000     -35.17040000     -72.53900000
H      -44.96860000     -34.19080000     -72.37190000
H      -45.23950000     -35.44260000     -73.37520000
C      -44.70720000     -31.74330000     -69.69570000
H      -45.10990000     -31.15540000     -68.81240000
H      -43.70560000     -31.47770000     -69.93660000
C      -44.77890000     -33.24460000     -69.45820000
H      -44.23970000     -33.75040000     -70.24500000
H      -44.29050000     -33.53270000     -68.46380000
C      -44.93330000     -36.14100000     -71.43490000
H      -44.25760000     -36.02480000     -70.62800000
H      -44.85480000     -37.13680000     -71.86530000
C      -46.40910000     -35.91340000     -70.98420000
C      -47.41020000     -36.72520000     -71.31710000
C      -46.80640000     -34.72730000     -70.19990000
H      -47.27830000     -37.71600000     -71.82840000
C      -48.20680000     -34.75600000     -70.08000000
C      -46.26190000     -33.63420000     -69.45420000
C      -47.20910000     -32.83060000     -68.91830000
S      -48.95900000     -36.16020000     -70.80540000
S      -48.88180000     -33.45710000     -69.12920000
H      -46.96750000     -31.96510000     -68.37480000
