40
Properties=species:S:1:pos:R:3 #=T CELL(abcABC):=T 1.889726e+02=T 90.00000=T Traj:=T positionsangstrom=T Step:=T 0=T Bead:=T pbc="F F F"
C      -48.41890000     -33.47540000     -68.63220000
C      -47.23830000     -34.21620000     -68.56420000
C      -47.05150000     -35.20120000     -69.53760000
C      -47.84900000     -35.31710000     -70.73040000
C      -48.99130000     -34.51560000     -70.77240000
C      -49.24560000     -33.60980000     -69.74920000
H      -48.74790000     -32.85690000     -67.80660000
H      -46.19290000     -35.89210000     -69.47650000
H      -49.61910000     -34.51470000     -71.66190000
H      -50.14430000     -33.00590000     -69.97000000
C      -47.58100000     -36.37960000     -71.75130000
H      -48.46760000     -36.66850000     -72.24180000
H      -47.06810000     -37.20570000     -71.32190000
C      -46.25550000     -33.98370000     -67.45800000
H      -45.97630000     -32.94970000     -67.40730000
H      -46.68460000     -34.28490000     -66.46530000
S      -46.44820000     -35.74270000     -73.05740000
S      -44.58170000     -34.71450000     -67.67610000
C      -47.13770000     -33.99790000     -73.48970000
H      -46.95930000     -33.75550000     -74.59590000
H      -48.21000000     -33.95720000     -73.36230000
C      -43.63430000     -33.58390000     -68.73720000
H      -42.67320000     -34.04730000     -68.84830000
H      -43.51100000     -32.61130000     -68.33830000
C      -44.29350000     -33.46560000     -70.09950000
H      -44.65440000     -34.46030000     -70.37450000
H      -45.25640000     -32.91450000     -69.94980000
C      -46.50300000     -32.91400000     -72.56900000
H      -46.24040000     -33.26820000     -71.55340000
H      -47.23230000     -32.19110000     -72.32060000
C      -45.24640000     -32.14650000     -73.08250000
C      -45.29060000     -31.34180000     -74.19520000
C      -43.97970000     -32.15700000     -72.48240000
H      -46.19130000     -31.24410000     -74.73720000
C      -43.02400000     -31.42880000     -73.22660000
C      -43.44980000     -32.68470000     -71.14800000
C      -42.14430000     -32.28420000     -71.05690000
S      -43.70360000     -30.73800000     -74.70770000
S      -41.44870000     -31.41450000     -72.44180000
H      -41.56890000     -32.37370000     -70.14080000
