40
Properties=species:S:1:pos:R:3 #=T CELL(abcABC):=T 1.889726e+02=T 90.00000=T Traj:=T positionsangstrom=T Step:=T 0=T Bead:=T pbc="F F F"
C      -48.84690000     -33.33210000     -68.84560000
C      -47.65400000     -34.03040000     -68.55290000
C      -47.23540000     -34.99150000     -69.45350000
C      -48.00140000     -35.31420000     -70.55480000
C      -49.17890000     -34.58440000     -70.83050000
C      -49.61740000     -33.58260000     -69.96740000
H      -49.08400000     -32.58870000     -68.15650000
H      -46.38470000     -35.69810000     -69.29960000
H      -49.61690000     -34.91340000     -71.80240000
H      -50.43990000     -32.89980000     -70.06880000
C      -47.51620000     -36.48560000     -71.38660000
H      -48.26640000     -37.01850000     -71.92710000
H      -46.86230000     -37.24520000     -71.00220000
C      -46.90730000     -33.51560000     -67.35580000
H      -46.95320000     -32.37150000     -67.37370000
H      -47.25650000     -34.01620000     -66.48350000
S      -46.34040000     -35.69600000     -72.72720000
S      -45.04020000     -33.87920000     -67.48990000
C      -47.00210000     -34.07110000     -73.35600000
H      -47.07730000     -33.99020000     -74.44450000
H      -48.05280000     -33.94790000     -73.06210000
C      -44.46900000     -32.76230000     -68.84800000
H      -43.61270000     -32.14640000     -68.53150000
H      -45.07940000     -31.90100000     -68.99960000
C      -44.14130000     -33.53850000     -70.15250000
H      -43.43140000     -34.37290000     -69.87150000
H      -45.01700000     -33.89190000     -70.72170000
C      -46.37510000     -32.78560000     -72.87530000
H      -46.31580000     -32.69180000     -71.81780000
H      -47.10770000     -32.07640000     -73.14640000
C      -44.93700000     -32.49850000     -73.36570000
C      -44.76350000     -32.00900000     -74.65980000
C      -43.70720000     -32.42650000     -72.55840000
H      -45.52750000     -31.80910000     -75.38660000
C      -42.62300000     -31.90890000     -73.29090000
C      -43.34200000     -32.67730000     -71.15990000
C      -42.01230000     -32.31260000     -70.89250000
S      -43.14740000     -31.45140000     -74.93250000
S      -41.21570000     -31.60370000     -72.37770000
H      -41.39620000     -32.49200000     -69.97420000
