40
Properties=species:S:1:pos:R:3 #=T CELL(abcABC):=T 1.889726e+02=T 90.00000=T Traj:=T positionsangstrom=T Step:=T 0=T Bead:=T pbc="F F F"
C      -49.09550000     -33.37620000     -68.68760000
C      -47.87230000     -34.04650000     -68.57290000
C      -47.41340000     -34.96850000     -69.50670000
C      -48.27160000     -35.40070000     -70.53930000
C      -49.55880000     -34.76260000     -70.59810000
C      -49.97000000     -33.78180000     -69.69240000
H      -49.47080000     -32.58880000     -68.01360000
H      -46.39400000     -35.33720000     -69.35080000
H      -50.38690000     -35.02120000     -71.27540000
H      -50.97380000     -33.28040000     -69.84270000
C      -47.81540000     -36.43560000     -71.54380000
H      -48.57000000     -36.34220000     -72.33600000
H      -47.80810000     -37.38830000     -71.05140000
C      -46.95470000     -33.55820000     -67.47160000
H      -47.36620000     -32.58330000     -67.09590000
H      -47.07170000     -34.17680000     -66.61000000
S      -46.10020000     -35.94290000     -72.17060000
S      -45.07420000     -33.62340000     -67.79010000
C      -46.51860000     -34.43350000     -73.27950000
H      -45.95970000     -34.60210000     -74.18050000
H      -47.56410000     -34.58790000     -73.51850000
C      -44.69300000     -32.72080000     -69.40640000
H      -44.09660000     -31.83410000     -69.05420000
H      -45.59660000     -32.52030000     -69.94870000
C      -43.81390000     -33.63180000     -70.29910000
H      -43.09940000     -34.19340000     -69.66850000
H      -44.33290000     -34.50650000     -70.76970000
C      -46.18780000     -33.00710000     -72.73510000
H      -46.18970000     -32.90790000     -71.63750000
H      -47.11320000     -32.41500000     -73.07020000
C      -44.91750000     -32.33400000     -73.26540000
C      -44.85690000     -31.60090000     -74.43450000
C      -43.61280000     -32.28280000     -72.54930000
H      -45.62620000     -31.43820000     -75.20580000
C      -42.60850000     -31.59920000     -73.32750000
C      -43.04780000     -32.83800000     -71.35610000
C      -41.71290000     -32.67840000     -71.21360000
S      -43.25910000     -30.97880000     -74.82820000
S      -41.04960000     -31.75720000     -72.56140000
H      -41.10820000     -33.27340000     -70.63410000
