40
Properties=species:S:1:pos:R:3 #=T CELL(abcABC):=T 1.889726e+02=T 90.00000=T Traj:=T positionsangstrom=T Step:=T 0=T Bead:=T pbc="F F F"
C      -48.95710000     -33.30560000     -68.70230000
C      -47.75080000     -33.99300000     -68.46180000
C      -47.33830000     -34.93670000     -69.40230000
C      -48.01560000     -35.22940000     -70.55920000
C      -49.27300000     -34.64050000     -70.75850000
C      -49.75340000     -33.68910000     -69.82580000
H      -49.33780000     -32.54020000     -68.02890000
H      -46.37540000     -35.49070000     -69.23070000
H      -49.81780000     -34.99850000     -71.62940000
H      -50.72440000     -33.20270000     -69.97160000
C      -47.48520000     -36.28670000     -71.58770000
H      -48.39100000     -36.70970000     -72.06800000
H      -47.07370000     -37.10140000     -70.90440000
C      -46.87240000     -33.56630000     -67.36180000
H      -47.17870000     -32.56270000     -66.97320000
H      -47.08890000     -34.13710000     -66.48630000
S      -46.16180000     -35.77470000     -72.73230000
S      -45.05640000     -33.72220000     -67.57720000
C      -46.91970000     -34.15160000     -73.41830000
H      -46.80640000     -34.15380000     -74.52880000
H      -47.92540000     -34.24410000     -73.10880000
C      -44.57530000     -32.73380000     -69.07630000
H      -43.70420000     -32.04520000     -68.71720000
H      -45.45620000     -32.20640000     -69.42050000
C      -44.10280000     -33.61250000     -70.25870000
H      -43.50380000     -34.37020000     -69.86300000
H      -44.94350000     -34.21450000     -70.68450000
C      -46.23910000     -32.94050000     -72.81840000
H      -46.13420000     -33.10010000     -71.73790000
H      -46.85110000     -31.98720000     -72.95180000
C      -44.89130000     -32.62690000     -73.37330000
C      -44.70920000     -32.17030000     -74.65180000
C      -43.71050000     -32.44120000     -72.53750000
H      -45.58840000     -32.08440000     -75.25890000
C      -42.69890000     -31.74340000     -73.23470000
C      -43.30780000     -32.78290000     -71.17680000
C      -41.98760000     -32.42210000     -70.96010000
S      -43.13150000     -31.43220000     -74.94680000
S      -41.27190000     -31.48380000     -72.26380000
H      -41.39140000     -32.52710000     -70.03590000
