40
Properties=species:S:1:pos:R:3 #=T CELL(abcABC):=T 1.889726e+02=T 90.00000=T Traj:=T positionsangstrom=T Step:=T 0=T Bead:=T pbc="F F F"
C      -47.00040000     -33.71330000     -69.07360000
C      -47.04450000     -32.32640000     -69.15510000
C      -45.86750000     -31.59420000     -68.88800000
C      -44.64700000     -32.25740000     -68.70340000
C      -44.67710000     -33.66840000     -68.59820000
C      -45.86340000     -34.40710000     -68.79350000
H      -47.88670000     -34.31280000     -69.43580000
H      -45.94150000     -30.48990000     -68.89030000
H      -43.71520000     -34.22380000     -68.48300000
H      -45.92480000     -35.52380000     -68.73810000
C      -43.40740000     -31.45550000     -68.32370000
H      -42.63740000     -31.94490000     -67.63050000
H      -43.70520000     -30.57410000     -67.78680000
C      -48.31690000     -31.75500000     -69.61670000
H      -49.04540000     -32.51810000     -69.81710000
H      -48.81390000     -31.12800000     -68.78810000
S      -42.43600000     -30.93630000     -69.90140000
S      -48.36320000     -30.74660000     -71.18600000
C      -42.26840000     -32.56650000     -70.73320000
H      -41.32610000     -32.58040000     -71.32030000
H      -42.20610000     -33.42520000     -69.99690000
C      -48.06980000     -32.08410000     -72.54550000
H      -48.57090000     -31.60330000     -73.40070000
H      -48.64540000     -32.95720000     -72.28150000
C      -46.54590000     -32.37150000     -72.73270000
H      -46.08770000     -31.60380000     -73.39270000
H      -46.09970000     -32.30870000     -71.75060000
C      -43.47060000     -32.76710000     -71.60920000
H      -43.44650000     -32.07540000     -72.43080000
H      -44.30390000     -32.48870000     -70.99460000
C      -43.73160000     -34.18470000     -72.04700000
C      -43.00530000     -35.30050000     -71.84130000
C      -44.92750000     -34.49890000     -72.93940000
H      -41.95090000     -35.24910000     -71.55590000
C      -44.92860000     -35.82200000     -73.33850000
C      -46.20700000     -33.79320000     -73.26770000
C      -46.98770000     -34.51960000     -74.11000000
S      -43.52830000     -36.70990000     -72.67560000
S      -46.27750000     -36.17190000     -74.46160000
H      -47.92910000     -34.10780000     -74.52000000
