40
Properties=species:S:1:pos:R:3 #=T CELL(abcABC):=T 1.889726e+02=T 90.00000=T Traj:=T positionsangstrom=T Step:=T 0=T Bead:=T pbc="F F F"
C      -49.12950000     -33.15650000     -68.91190000
C      -47.78520000     -33.61700000     -68.80620000
C      -47.35230000     -34.66150000     -69.63860000
C      -48.17020000     -35.12820000     -70.69270000
C      -49.45300000     -34.62030000     -70.75860000
C      -49.92380000     -33.70330000     -69.85520000
H      -49.61830000     -32.36680000     -68.35260000
H      -46.37050000     -35.14830000     -69.51300000
H      -50.07310000     -34.97980000     -71.59860000
H      -50.94690000     -33.45200000     -69.90710000
C      -47.63320000     -36.31470000     -71.51540000
H      -48.24110000     -36.42450000     -72.42080000
H      -47.55950000     -37.28890000     -70.98770000
C      -46.83620000     -33.07660000     -67.79450000
H      -46.67620000     -32.03030000     -67.87620000
H      -47.24230000     -33.38960000     -66.79440000
S      -45.99130000     -36.01890000     -72.35750000
S      -45.04980000     -33.73650000     -67.68240000
C      -46.47830000     -34.52690000     -73.25200000
H      -46.02590000     -34.67490000     -74.19940000
H      -47.55210000     -34.68320000     -73.51170000
C      -44.16920000     -33.00260000     -69.12490000
H      -43.38740000     -32.30080000     -68.83600000
H      -44.91010000     -32.24900000     -69.53390000
C      -43.67930000     -33.97710000     -70.21980000
H      -43.05760000     -34.71320000     -69.65800000
H      -44.50390000     -34.39010000     -70.80030000
C      -46.30200000     -33.16680000     -72.60510000
H      -46.24580000     -33.22210000     -71.45810000
H      -47.20010000     -32.49650000     -72.73580000
C      -45.06320000     -32.47440000     -73.03840000
C      -45.13510000     -31.64390000     -74.13090000
C      -43.69900000     -32.59200000     -72.50480000
H      -46.02610000     -31.20260000     -74.56910000
C      -42.80620000     -31.77120000     -73.22690000
C      -42.98880000     -33.14010000     -71.32550000
C      -41.64620000     -32.82190000     -71.36550000
S      -43.52650000     -30.98160000     -74.61530000
S      -41.23190000     -31.62490000     -72.59040000
H      -41.01650000     -32.82330000     -70.40610000
