40
Properties=species:S:1:pos:R:3 #=T CELL(abcABC):=T 1.889726e+02=T 90.00000=T Traj:=T positionsangstrom=T Step:=T 0=T Bead:=T pbc="F F F"
C      -49.10500000     -33.19690000     -68.83430000
C      -47.79620000     -33.71360000     -68.72300000
C      -47.34910000     -34.74200000     -69.59760000
C      -48.23680000     -35.36000000     -70.51390000
C      -49.51100000     -34.84740000     -70.51870000
C      -49.93210000     -33.80810000     -69.70940000
H      -49.55310000     -32.37840000     -68.27870000
H      -46.29100000     -35.12680000     -69.65290000
H      -50.31780000     -35.28250000     -71.20510000
H      -50.91880000     -33.45940000     -69.79160000
C      -47.72510000     -36.31300000     -71.54970000
H      -48.47720000     -36.60050000     -72.25120000
H      -47.50170000     -37.29660000     -71.08220000
C      -46.78620000     -33.25900000     -67.68420000
H      -46.69670000     -32.15900000     -67.74860000
H      -47.17780000     -33.47200000     -66.67490000
S      -46.08270000     -35.85430000     -72.17590000
S      -45.08290000     -33.87880000     -67.82260000
C      -46.34170000     -34.43000000     -73.33690000
H      -45.51270000     -34.51980000     -74.09570000
H      -47.29530000     -34.57310000     -73.81500000
C      -44.65700000     -32.92730000     -69.31900000
H      -44.05440000     -32.01650000     -69.11210000
H      -45.60160000     -32.58070000     -69.64580000
C      -43.79680000     -33.73990000     -70.28260000
H      -43.10000000     -34.33420000     -69.66360000
H      -44.40240000     -34.48790000     -70.80640000
C      -46.26680000     -32.97200000     -72.69880000
H      -46.08300000     -33.20100000     -71.70290000
H      -47.12350000     -32.36490000     -72.82640000
C      -45.01330000     -32.36960000     -73.17220000
C      -44.97820000     -31.68280000     -74.34120000
C      -43.67340000     -32.44070000     -72.53950000
H      -45.77570000     -31.43970000     -74.97980000
C      -42.69850000     -31.69560000     -73.25260000
C      -43.06710000     -32.93260000     -71.29980000
C      -41.71830000     -32.69390000     -71.21070000
S      -43.37670000     -30.96780000     -74.71020000
S      -41.09810000     -31.74650000     -72.58550000
H      -41.03920000     -33.04990000     -70.45870000
