40
Properties=species:S:1:pos:R:3 #=T CELL(abcABC):=T 1.889726e+02=T 90.00000=T Traj:=T positionsangstrom=T Step:=T 0=T Bead:=T pbc="F F F"
C      -48.47760000     -33.01250000     -69.25810000
C      -47.55020000     -33.93470000     -68.82480000
C      -47.34780000     -35.14830000     -69.50340000
C      -48.07550000     -35.38950000     -70.70210000
C      -49.12980000     -34.54480000     -71.09350000
C      -49.35640000     -33.33790000     -70.33290000
H      -48.63840000     -32.08360000     -68.69480000
H      -46.46350000     -35.65490000     -69.27000000
H      -49.72910000     -34.84750000     -71.92730000
H      -50.26800000     -32.79610000     -70.66510000
C      -47.56100000     -36.55630000     -71.43780000
H      -48.34220000     -36.95180000     -72.09440000
H      -47.45110000     -37.33950000     -70.68280000
C      -46.67530000     -33.58710000     -67.61400000
H      -46.68600000     -32.54930000     -67.37470000
H      -47.15800000     -33.99990000     -66.68890000
S      -45.98470000     -36.22480000     -72.42050000
S      -44.98290000     -34.15180000     -67.74810000
C      -46.40090000     -34.48630000     -73.22520000
H      -45.86270000     -34.30970000     -74.12180000
H      -47.35770000     -34.73680000     -73.64200000
C      -44.46060000     -33.14610000     -69.19980000
H      -43.92070000     -32.27790000     -68.83290000
H      -45.34380000     -32.67400000     -69.63770000
C      -43.64380000     -33.85460000     -70.22310000
H      -42.75240000     -34.23250000     -69.77630000
H      -44.17990000     -34.69540000     -70.73310000
C      -46.38490000     -33.13660000     -72.41760000
H      -46.24940000     -33.36350000     -71.33630000
H      -47.38480000     -32.70530000     -72.55160000
C      -45.24320000     -32.29930000     -72.85130000
C      -45.33500000     -31.39980000     -73.89630000
C      -43.84610000     -32.28980000     -72.37980000
H      -46.26600000     -31.30460000     -74.44000000
C      -43.02530000     -31.45460000     -73.11670000
C      -43.10370000     -32.94890000     -71.34320000
C      -41.75680000     -32.54500000     -71.31850000
S      -43.83920000     -30.67040000     -74.46930000
S      -41.37380000     -31.39090000     -72.61990000
H      -40.92000000     -32.74370000     -70.64540000
