40
Properties=species:S:1:pos:R:3 #=T CELL(abcABC):=T 1.889726e+02=T 90.00000=T Traj:=T positionsangstrom=T Step:=T 0=T Bead:=T pbc="F F F"
C      -48.89460000     -33.09430000     -69.04020000
C      -47.63480000     -33.68340000     -68.91710000
C      -47.22390000     -34.82810000     -69.64680000
C      -48.12100000     -35.29570000     -70.67430000
C      -49.33350000     -34.56840000     -70.83990000
C      -49.76920000     -33.55240000     -70.03170000
H      -49.33930000     -32.35650000     -68.42640000
H      -46.26870000     -35.34200000     -69.55150000
H      -49.99270000     -34.80830000     -71.63770000
H      -50.73210000     -33.02420000     -70.15390000
C      -47.77070000     -36.46660000     -71.54030000
H      -48.56080000     -36.64780000     -72.30210000
H      -47.66380000     -37.28470000     -70.86170000
C      -46.75750000     -33.00710000     -67.92180000
H      -46.73430000     -31.88350000     -68.19080000
H      -47.29680000     -32.97830000     -66.99220000
S      -46.21550000     -36.10500000     -72.46010000
S      -45.02480000     -33.71550000     -67.69040000
C      -46.49980000     -34.50330000     -73.32600000
H      -45.87860000     -34.41700000     -74.18320000
H      -47.57590000     -34.49890000     -73.64520000
C      -44.03320000     -32.92450000     -69.02820000
H      -43.07850000     -32.67320000     -68.61760000
H      -44.59080000     -32.10760000     -69.43720000
C      -43.64330000     -33.93510000     -70.19130000
H      -42.96900000     -34.71710000     -69.83650000
H      -44.45160000     -34.50490000     -70.59750000
C      -46.20680000     -33.27050000     -72.46420000
H      -46.05460000     -33.54390000     -71.41700000
H      -47.09470000     -32.69160000     -72.52060000
C      -45.06190000     -32.46050000     -72.98880000
C      -45.21340000     -31.62190000     -74.08960000
C      -43.72230000     -32.45870000     -72.46160000
H      -46.11110000     -31.35270000     -74.68820000
C      -42.84120000     -31.61340000     -73.12230000
C      -43.02280000     -33.09300000     -71.28550000
C      -41.69770000     -32.79710000     -71.26460000
S      -43.71280000     -30.79910000     -74.45890000
S      -41.18640000     -31.81820000     -72.60000000
H      -41.01200000     -33.22180000     -70.45060000
