40
Properties=species:S:1:pos:R:3 #=T CELL(abcABC):=T 1.889726e+02=T 90.00000=T Traj:=T positionsangstrom=T Step:=T 0=T Bead:=T pbc="F F F"
C      -48.42640000     -33.66500000     -68.34980000
C      -47.16510000     -34.26140000     -68.29480000
C      -46.94350000     -35.30110000     -69.29370000
C      -47.86180000     -35.65810000     -70.29970000
C      -49.09010000     -34.93820000     -70.35520000
C      -49.30600000     -34.00080000     -69.37840000
H      -48.80760000     -33.00850000     -67.49970000
H      -46.02720000     -35.90610000     -69.40240000
H      -49.94610000     -35.08870000     -71.03800000
H      -50.23080000     -33.40760000     -69.44750000
C      -47.49820000     -36.72260000     -71.39720000
H      -48.41750000     -36.78850000     -72.00390000
H      -47.16880000     -37.73530000     -71.04280000
C      -46.12070000     -33.90030000     -67.33740000
H      -46.31340000     -32.82760000     -66.96390000
H      -46.36190000     -34.43710000     -66.39610000
S      -46.16380000     -36.12270000     -72.62540000
S      -44.34590000     -34.13130000     -67.83290000
C      -46.94780000     -34.51750000     -73.01290000
H      -47.02640000     -34.38460000     -74.06430000
H      -47.93490000     -34.49280000     -72.61860000
C      -44.24500000     -32.84990000     -69.12330000
H      -43.68640000     -31.94580000     -68.78110000
H      -45.21280000     -32.55730000     -69.46650000
C      -43.48050000     -33.34100000     -70.34160000
H      -42.58320000     -33.73420000     -69.89860000
H      -44.05150000     -34.20100000     -70.72390000
C      -46.30050000     -33.22290000     -72.33300000
H      -45.90260000     -33.59080000     -71.37150000
H      -47.21370000     -32.75520000     -72.01740000
C      -45.27540000     -32.42500000     -73.07030000
C      -45.55950000     -31.84800000     -74.26310000
C      -43.93630000     -32.12900000     -72.65200000
H      -46.52720000     -31.90090000     -74.72240000
C      -43.30860000     -31.28900000     -73.55530000
C      -43.14290000     -32.41990000     -71.49040000
C      -41.84730000     -31.87120000     -71.60630000
S      -44.28790000     -30.83780000     -74.90380000
S      -41.74370000     -30.81780000     -73.01100000
H      -41.03230000     -31.95180000     -70.96250000
