40
Properties=species:S:1:pos:R:3 #=T CELL(abcABC):=T 1.889726e+02=T 90.00000=T Traj:=T positionsangstrom=T Step:=T 0=T Bead:=T pbc="F F F"
C      -44.20580000     -29.44660000     -72.77410000
C      -45.31210000     -29.82350000     -72.01860000
C      -46.30990000     -30.56920000     -72.59910000
C      -46.14740000     -31.07610000     -73.89700000
C      -44.95580000     -30.73890000     -74.64700000
C      -43.98810000     -30.02700000     -74.02560000
H      -43.34230000     -28.93640000     -72.29420000
H      -47.16540000     -30.94460000     -72.07650000
H      -44.81840000     -31.14800000     -75.67960000
H      -43.01040000     -30.11120000     -74.43930000
C      -47.12750000     -32.05650000     -74.54150000
H      -46.53170000     -32.67490000     -75.18830000
H      -47.76620000     -31.46890000     -75.17620000
C      -45.47890000     -29.37430000     -70.56900000
H      -44.46200000     -29.09380000     -70.15990000
H      -46.07090000     -28.49020000     -70.60470000
S      -47.96440000     -33.12550000     -73.28360000
S      -46.15480000     -30.60640000     -69.50240000
C      -46.50890000     -34.23310000     -72.93910000
H      -46.39260000     -34.93310000     -73.72390000
H      -45.63820000     -33.68110000     -72.71840000
C      -45.08110000     -32.12050000     -69.84270000
H      -43.97590000     -31.86670000     -69.75180000
H      -45.12770000     -32.36090000     -70.94040000
C      -45.74100000     -33.23070000     -69.04290000
H      -45.79840000     -32.93750000     -68.02340000
H      -46.71270000     -33.25770000     -69.40080000
C      -46.89690000     -35.02240000     -71.70370000
H      -47.73650000     -35.59430000     -71.90890000
H      -47.18600000     -34.36940000     -70.86920000
C      -45.71160000     -35.89140000     -71.34350000
C      -45.27570000     -37.03020000     -71.97980000
C      -44.89950000     -35.50110000     -70.21780000
H      -45.67280000     -37.45440000     -72.94870000
C      -43.82360000     -36.40380000     -70.02350000
C      -44.89200000     -34.49330000     -69.13820000
C      -43.83130000     -34.66600000     -68.31880000
S      -43.92060000     -37.75310000     -71.08660000
S      -42.77110000     -36.02770000     -68.67170000
H      -43.57060000     -33.95460000     -67.47010000
