40
Properties=species:S:1:pos:R:3 #=T CELL(abcABC):=T 1.889726e+02=T 90.00000=T Traj:=T positionsangstrom=T Step:=T 0=T Bead:=T pbc="F F F"
C      -48.21340000     -33.58480000     -68.44780000
C      -46.99920000     -34.29730000     -68.37540000
C      -46.73200000     -35.38210000     -69.28150000
C      -47.67430000     -35.67170000     -70.28810000
C      -48.86710000     -34.92700000     -70.35560000
C      -49.15200000     -33.95890000     -69.41990000
H      -48.32930000     -32.56080000     -67.89310000
H      -45.72470000     -35.80690000     -69.26950000
H      -49.57850000     -35.06690000     -71.17640000
H      -50.09360000     -33.47210000     -69.54170000
C      -47.38010000     -36.76620000     -71.30280000
H      -48.30560000     -37.07530000     -71.77620000
H      -46.83190000     -37.63860000     -70.95580000
C      -46.04020000     -34.04010000     -67.21720000
H      -46.25400000     -33.09630000     -66.89380000
H      -46.06630000     -34.89120000     -66.49850000
S      -46.31490000     -36.05010000     -72.66650000
S      -44.25920000     -33.97090000     -67.75630000
C      -46.87640000     -34.38850000     -73.19200000
H      -46.49930000     -34.29090000     -74.22390000
H      -48.00320000     -34.34870000     -73.28800000
C      -44.35060000     -32.86150000     -69.27660000
H      -44.09220000     -31.81250000     -68.92390000
H      -45.35490000     -32.83260000     -69.65970000
C      -43.45950000     -33.38100000     -70.34750000
H      -42.51370000     -33.81310000     -69.99490000
H      -43.95110000     -34.16840000     -70.86770000
C      -46.44890000     -33.32610000     -72.23960000
H      -45.98520000     -33.69110000     -71.39130000
H      -47.30350000     -32.69020000     -71.88550000
C      -45.40980000     -32.45490000     -72.98600000
C      -45.71100000     -31.97760000     -74.22100000
C      -44.09600000     -32.04590000     -72.51330000
H      -46.73310000     -32.16880000     -74.59400000
C      -43.43430000     -31.30060000     -73.51650000
C      -43.15900000     -32.34060000     -71.40370000
C      -41.92500000     -31.70170000     -71.49960000
S      -44.38600000     -31.04510000     -74.96470000
S      -41.83380000     -30.80690000     -73.04560000
H      -41.06430000     -31.91110000     -70.90010000
