40
Properties=species:S:1:pos:R:3 #=T CELL(abcABC):=T 1.889726e+02=T 90.00000=T Traj:=T positionsangstrom=T Step:=T 0=T Bead:=T pbc="F F F"
C      -48.07450000     -33.59500000     -68.48450000
C      -46.96110000     -34.47650000     -68.33420000
C      -46.62090000     -35.47030000     -69.25040000
C      -47.54360000     -35.72940000     -70.32100000
C      -48.67530000     -34.91260000     -70.44300000
C      -48.94470000     -33.89280000     -69.50000000
H      -48.22380000     -32.90610000     -67.60950000
H      -45.76270000     -36.06350000     -69.00960000
H      -49.49010000     -35.10990000     -71.15490000
H      -49.89440000     -33.39940000     -69.57920000
C      -47.20530000     -36.77390000     -71.32150000
H      -48.03920000     -37.40230000     -71.66300000
H      -46.59010000     -37.46100000     -70.75890000
C      -46.07570000     -34.12830000     -67.17620000
H      -46.50990000     -33.34000000     -66.52880000
H      -45.89510000     -34.89490000     -66.38210000
S      -46.19710000     -36.24560000     -72.72800000
S      -44.30660000     -33.75000000     -67.66200000
C      -47.06170000     -34.63950000     -73.06240000
H      -47.00100000     -34.36600000     -74.07760000
H      -48.13150000     -34.81220000     -72.77820000
C      -44.29960000     -32.62560000     -69.14300000
H      -43.85780000     -31.72180000     -68.79750000
H      -45.35460000     -32.37610000     -69.40130000
C      -43.52690000     -33.28670000     -70.27820000
H      -42.55270000     -33.70010000     -69.80490000
H      -44.08450000     -34.19180000     -70.57900000
C      -46.39080000     -33.37060000     -72.30970000
H      -45.85090000     -33.67650000     -71.49950000
H      -47.19500000     -32.74860000     -71.92720000
C      -45.46180000     -32.52570000     -73.16840000
C      -45.77170000     -31.81770000     -74.28540000
C      -44.17950000     -32.17140000     -72.63380000
H      -46.70360000     -32.02040000     -74.80510000
C      -43.52830000     -31.29230000     -73.50970000
C      -43.25740000     -32.40390000     -71.47010000
C      -42.06750000     -31.69890000     -71.54300000
S      -44.47030000     -30.88660000     -74.96170000
S      -41.93660000     -30.82040000     -73.02990000
H      -41.20500000     -31.74900000     -70.83930000
