40
Properties=species:S:1:pos:R:3 #=T CELL(abcABC):=T 1.889726e+02=T 90.00000=T Traj:=T positionsangstrom=T Step:=T 0=T Bead:=T pbc="F F F"
C      -48.66860000     -33.71740000     -68.41760000
C      -47.40690000     -34.23330000     -68.44680000
C      -47.04080000     -35.15210000     -69.50190000
C      -47.96410000     -35.58140000     -70.37460000
C      -49.30010000     -35.13360000     -70.30900000
C      -49.63430000     -34.18980000     -69.39330000
H      -48.91350000     -32.89870000     -67.67330000
H      -46.03000000     -35.54020000     -69.61950000
H      -49.98560000     -35.57110000     -71.04840000
H      -50.67630000     -33.94640000     -69.34030000
C      -47.71640000     -36.59780000     -71.53010000
H      -48.62800000     -36.75640000     -72.07370000
H      -47.29040000     -37.54050000     -71.17670000
C      -46.36380000     -33.72070000     -67.48330000
H      -46.54640000     -32.60080000     -67.49810000
H      -46.61050000     -34.14610000     -66.56550000
S      -46.08790000     -35.99280000     -72.43390000
S      -44.56450000     -34.00910000     -67.91680000
C      -46.56350000     -34.45040000     -73.28680000
H      -46.16960000     -34.36830000     -74.30920000
H      -47.63390000     -34.49410000     -73.49150000
C      -44.34340000     -32.99160000     -69.41280000
H      -43.90190000     -32.05320000     -69.17810000
H      -45.33870000     -32.66760000     -69.76890000
C      -43.57840000     -33.72010000     -70.51810000
H      -42.75620000     -34.26120000     -70.06540000
H      -44.28330000     -34.48470000     -70.86450000
C      -46.26120000     -33.21130000     -72.41730000
H      -45.73770000     -33.58410000     -71.50160000
H      -47.16450000     -32.67230000     -72.16410000
C      -45.16640000     -32.33890000     -73.09170000
C      -45.46460000     -31.53700000     -74.18710000
C      -43.81600000     -32.13690000     -72.63850000
H      -46.45890000     -31.55070000     -74.67080000
C      -43.07060000     -31.25740000     -73.41310000
C      -43.11390000     -32.67810000     -71.50970000
C      -41.85930000     -32.17570000     -71.45880000
S      -44.07500000     -30.59900000     -74.64060000
S      -41.46040000     -31.11060000     -72.81530000
H      -41.11570000     -32.36950000     -70.70680000
