40
Properties=species:S:1:pos:R:3 #=T CELL(abcABC):=T 1.889726e+02=T 90.00000=T Traj:=T positionsangstrom=T Step:=T 0=T Bead:=T pbc="F F F"
C      -48.42520000     -30.88890000     -73.59440000
C      -47.23140000     -31.66020000     -73.66310000
C      -46.07000000     -31.20120000     -73.13440000
C      -45.94410000     -29.92530000     -72.53890000
C      -47.09680000     -29.15620000     -72.44240000
C      -48.29730000     -29.64690000     -72.92550000
H      -49.29940000     -31.16120000     -74.16310000
H      -45.18590000     -31.79480000     -73.22820000
H      -47.08680000     -28.13020000     -71.96120000
H      -49.22380000     -29.13570000     -72.76460000
C      -44.64040000     -29.51310000     -71.88970000
H      -44.76760000     -29.49200000     -70.79950000
H      -44.49440000     -28.46830000     -72.28760000
C      -47.30100000     -32.90240000     -74.43350000
H      -47.82280000     -32.83970000     -75.39010000
H      -46.30160000     -33.17090000     -74.78680000
S      -43.11080000     -30.48560000     -72.11450000
S      -47.92980000     -34.34800000     -73.59820000
C      -43.06770000     -31.53570000     -70.58460000
H      -42.04250000     -31.75560000     -70.29900000
H      -43.51290000     -30.84490000     -69.73210000
C      -46.76500000     -34.38640000     -72.15280000
H      -47.45710000     -34.98100000     -71.51860000
H      -46.64920000     -33.40500000     -71.76570000
C      -45.53130000     -35.21170000     -72.42510000
H      -45.74050000     -35.99460000     -73.20470000
H      -44.85290000     -34.51260000     -72.98250000
C      -43.85370000     -32.91330000     -70.80530000
H      -43.54230000     -33.28940000     -71.81350000
H      -44.94190000     -32.65530000     -70.83490000
C      -43.76090000     -33.91310000     -69.79600000
C      -43.32550000     -33.75280000     -68.52360000
C      -44.39060000     -35.24860000     -69.96900000
H      -43.07290000     -32.80470000     -68.02600000
C      -44.28460000     -36.03300000     -68.81760000
C      -45.05670000     -35.92980000     -71.12860000
C      -45.24980000     -37.23620000     -70.81360000
S      -43.37180000     -35.25620000     -67.54720000
S      -44.83950000     -37.69360000     -69.16350000
H      -45.66350000     -37.96940000     -71.46940000
