40
Properties=species:S:1:pos:R:3 #=T CELL(abcABC):=T 1.889726e+02=T 90.00000=T Traj:=T positionsangstrom=T Step:=T 0=T Bead:=T pbc="F F F"
C      -48.08170000     -33.56570000     -68.53920000
C      -46.89980000     -34.30120000     -68.23260000
C      -46.61210000     -35.44750000     -68.98240000
C      -47.33590000     -35.64430000     -70.18440000
C      -48.51400000     -34.90690000     -70.51780000
C      -48.92360000     -33.95710000     -69.66540000
H      -48.40210000     -32.83850000     -67.79050000
H      -45.84990000     -36.13580000     -68.70770000
H      -49.09620000     -35.36620000     -71.30320000
H      -49.89170000     -33.49910000     -69.82100000
C      -46.82070000     -36.66610000     -71.14530000
H      -47.60340000     -36.99490000     -71.90370000
H      -46.40500000     -37.60480000     -70.74360000
C      -46.01780000     -33.89700000     -67.08080000
H      -46.41180000     -32.94480000     -66.69000000
H      -45.97720000     -34.68570000     -66.32360000
S      -45.42640000     -36.10920000     -72.28940000
S      -44.25380000     -33.95190000     -67.61370000
C      -46.25680000     -34.92950000     -73.46800000
H      -45.55450000     -34.73740000     -74.22500000
H      -47.01170000     -35.55030000     -73.90020000
C      -44.22110000     -32.76320000     -69.11070000
H      -43.40140000     -32.09460000     -68.98300000
H      -45.19640000     -32.19910000     -69.07900000
C      -44.11520000     -33.47500000     -70.45170000
H      -43.45430000     -34.38900000     -70.41860000
H      -45.05870000     -33.83230000     -70.80120000
C      -46.67460000     -33.57890000     -72.86010000
H      -46.69280000     -33.53360000     -71.76310000
H      -47.70410000     -33.33970000     -73.24720000
C      -45.72940000     -32.52420000     -73.37960000
C      -45.97200000     -31.83920000     -74.54010000
C      -44.48380000     -32.15070000     -72.75780000
H      -46.66660000     -32.06540000     -75.38500000
C      -43.79080000     -31.22550000     -73.51910000
C      -43.73190000     -32.46300000     -71.52740000
C      -42.57750000     -31.72420000     -71.40700000
S      -44.58680000     -30.73500000     -75.03420000
S      -42.22990000     -30.76230000     -72.87860000
H      -41.86770000     -31.75930000     -70.58350000
