40
Properties=species:S:1:pos:R:3 #=T CELL(abcABC):=T 1.889726e+02=T 90.00000=T Traj:=T positionsangstrom=T Step:=T 0=T Bead:=T pbc="F F F"
C      -48.08690000     -34.12560000     -69.26440000
C      -47.74370000     -32.79310000     -69.51630000
C      -46.71860000     -32.23340000     -68.73070000
C      -45.90650000     -32.99380000     -67.90900000
C      -46.15760000     -34.38090000     -67.85520000
C      -47.28600000     -34.94350000     -68.43440000
H      -48.95400000     -34.47210000     -69.73180000
H      -46.56820000     -31.12400000     -68.84610000
H      -45.65510000     -34.98390000     -67.08220000
H      -47.53970000     -36.02310000     -68.46140000
C      -44.74930000     -32.29140000     -67.18510000
H      -44.05240000     -33.12630000     -66.97290000
H      -45.11850000     -31.75980000     -66.31790000
C      -48.59750000     -31.94420000     -70.51250000
H      -49.51320000     -31.74380000     -69.99790000
H      -48.09930000     -31.14420000     -70.89550000
S      -43.89760000     -31.07330000     -68.22280000
S      -49.14880000     -32.84870000     -72.00500000
C      -43.17150000     -32.01340000     -69.69790000
H      -42.29740000     -31.39380000     -69.85570000
H      -42.77780000     -32.97490000     -69.41110000
C      -47.48900000     -33.62150000     -72.48620000
H      -47.69860000     -34.54920000     -73.06380000
H      -46.98820000     -34.06320000     -71.50890000
C      -46.53750000     -32.71400000     -73.20800000
H      -46.99740000     -32.28640000     -74.07380000
H      -46.10160000     -31.94870000     -72.64220000
C      -43.91680000     -32.24590000     -70.98730000
H      -43.91940000     -31.37870000     -71.58160000
H      -44.94000000     -32.52110000     -70.61810000
C      -43.41440000     -33.32280000     -71.95410000
C      -42.14840000     -33.89570000     -71.82880000
C      -44.08310000     -33.79510000     -73.11070000
H      -41.42790000     -33.72750000     -71.07840000
C      -43.31480000     -34.64870000     -73.93000000
C      -45.39050000     -33.52750000     -73.74390000
C      -45.56040000     -34.15850000     -74.98850000
S      -41.85150000     -35.03970000     -73.15090000
S      -44.25490000     -35.26570000     -75.32000000
H      -46.39430000     -33.90610000     -75.59430000
