40
Properties=species:S:1:pos:R:3 #=T CELL(abcABC):=T 1.889726e+02=T 90.00000=T Traj:=T positionsangstrom=T Step:=T 0=T Bead:=T pbc="F F F"
C      -44.17210000     -29.46680000     -72.73810000
C      -45.38850000     -29.80770000     -71.99680000
C      -46.36600000     -30.51990000     -72.67200000
C      -46.15790000     -31.03440000     -73.96170000
C      -44.84410000     -30.87410000     -74.54730000
C      -43.88260000     -30.07600000     -73.91580000
H      -43.46710000     -28.83100000     -72.19550000
H      -47.31280000     -30.75340000     -72.10010000
H      -44.64580000     -31.40710000     -75.51150000
H      -43.04300000     -29.66660000     -74.50570000
C      -47.16810000     -31.87170000     -74.59220000
H      -46.75940000     -32.42560000     -75.46680000
H      -48.04670000     -31.23080000     -74.88120000
C      -45.75630000     -29.21990000     -70.67010000
H      -44.89570000     -28.75850000     -70.24010000
H      -46.63250000     -28.45570000     -70.68230000
S      -47.95110000     -33.09460000     -73.48430000
S      -46.32610000     -30.55870000     -69.43870000
C      -46.50830000     -34.16430000     -72.85020000
H      -45.97980000     -34.41440000     -73.83220000
H      -45.84650000     -33.42680000     -72.33770000
C      -45.25330000     -31.98340000     -69.80930000
H      -44.29870000     -31.83540000     -69.32300000
H      -45.06320000     -32.12100000     -70.88190000
C      -45.83050000     -33.30360000     -69.22030000
H      -46.13860000     -33.14720000     -68.13130000
H      -46.80020000     -33.59000000     -69.72340000
C      -46.85460000     -35.36610000     -71.96310000
H      -47.52380000     -36.10400000     -72.50960000
H      -47.50840000     -35.02210000     -71.12300000
C      -45.65270000     -36.05730000     -71.28180000
C      -45.17520000     -37.24270000     -71.80400000
C      -44.91020000     -35.61650000     -70.12180000
H      -45.54320000     -37.74270000     -72.65760000
C      -43.81950000     -36.47620000     -69.87660000
C      -44.77800000     -34.47430000     -69.22250000
C      -43.65230000     -34.47190000     -68.45530000
S      -43.76800000     -37.80220000     -70.98090000
S      -42.71060000     -35.95570000     -68.60040000
H      -43.41880000     -33.73410000     -67.62800000
