40
Properties=species:S:1:pos:R:3 #=T CELL(abcABC):=T 1.889726e+02=T 90.00000=T Traj:=T positionsangstrom=T Step:=T 0=T Bead:=T pbc="F F F"
C      -48.08390000     -34.33520000     -68.59820000
C      -46.69330000     -34.54540000     -68.52540000
C      -46.07610000     -35.52470000     -69.25460000
C      -46.77650000     -36.16610000     -70.32690000
C      -48.11940000     -35.81600000     -70.52910000
C      -48.79710000     -34.99380000     -69.60180000
H      -48.54100000     -33.64650000     -67.88380000
H      -44.96700000     -35.63140000     -69.06150000
H      -48.62070000     -36.40830000     -71.32660000
H      -49.83220000     -34.86780000     -69.73240000
C      -46.08970000     -37.15300000     -71.14500000
H      -46.83290000     -37.78830000     -71.59940000
H      -45.46420000     -37.84770000     -70.57050000
C      -45.98560000     -33.88790000     -67.35250000
H      -46.34080000     -32.92370000     -67.05720000
H      -46.13120000     -34.45140000     -66.39420000
S      -45.03880000     -36.27300000     -72.47760000
S      -44.05900000     -33.65940000     -67.50000000
C      -46.27060000     -35.23690000     -73.37010000
H      -45.87930000     -35.03790000     -74.36050000
H      -47.26850000     -35.67530000     -73.51060000
C      -43.65640000     -32.56660000     -69.00540000
H      -42.58730000     -32.57680000     -69.14280000
H      -43.94280000     -31.52540000     -68.58870000
C      -44.40520000     -32.89460000     -70.31600000
H      -44.09470000     -33.88000000     -70.65270000
H      -45.47780000     -32.79140000     -70.09280000
C      -46.52810000     -33.77590000     -72.75920000
H      -46.36360000     -33.80540000     -71.68400000
H      -47.61470000     -33.66200000     -72.89940000
C      -45.71650000     -32.73340000     -73.41840000
C      -45.98300000     -32.26950000     -74.69810000
C      -44.73040000     -31.94180000     -72.73450000
H      -46.76470000     -32.51800000     -75.39690000
C      -44.20320000     -30.90870000     -73.52060000
C      -44.06770000     -31.85730000     -71.40790000
C      -43.29020000     -30.75390000     -71.17600000
S      -44.95850000     -30.83980000     -75.06390000
S      -43.00580000     -29.86860000     -72.68070000
H      -42.85780000     -30.29870000     -70.28050000
