40
Properties=species:S:1:pos:R:3 #=T CELL(abcABC):=T 1.889726e+02=T 90.00000=T Traj:=T positionsangstrom=T Step:=T 0=T Bead:=T pbc="F F F"
C      -44.20100000     -29.63030000     -72.45070000
C      -45.50460000     -29.75110000     -71.96240000
C      -46.50600000     -30.46520000     -72.64450000
C      -46.12150000     -31.03890000     -73.85980000
C      -44.85600000     -30.77040000     -74.43200000
C      -43.95120000     -29.96560000     -73.73380000
H      -43.50570000     -29.09220000     -71.84780000
H      -47.49140000     -30.35080000     -72.17660000
H      -44.63230000     -31.20680000     -75.38120000
H      -42.96340000     -29.76100000     -74.18640000
C      -47.06580000     -31.97490000     -74.59560000
H      -46.64420000     -32.31240000     -75.52430000
H      -47.95240000     -31.52450000     -75.00970000
C      -45.76900000     -29.22810000     -70.53790000
H      -44.87160000     -28.76980000     -70.17760000
H      -46.54840000     -28.40880000     -70.56830000
S      -47.81560000     -33.48540000     -73.65980000
S      -46.54470000     -30.55170000     -69.53310000
C      -46.29070000     -34.00520000     -72.71940000
H      -45.49390000     -34.24660000     -73.33340000
H      -45.90650000     -33.24100000     -72.04140000
C      -45.18030000     -31.83340000     -69.65440000
H      -44.32660000     -31.60430000     -68.99910000
H      -44.86600000     -31.90860000     -70.71730000
C      -45.84490000     -33.22400000     -69.34770000
H      -46.35540000     -33.23190000     -68.41990000
H      -46.69840000     -33.33280000     -70.05150000
C      -46.66740000     -35.31870000     -71.97510000
H      -47.18030000     -36.06430000     -72.65640000
H      -47.32940000     -35.09800000     -71.22190000
C      -45.55030000     -36.00040000     -71.38780000
C      -45.26490000     -37.30770000     -71.75880000
C      -44.72410000     -35.48990000     -70.29730000
H      -45.74740000     -37.77200000     -72.54050000
C      -43.63400000     -36.32450000     -70.07170000
C      -44.80800000     -34.40130000     -69.35050000
C      -43.86880000     -34.48590000     -68.34910000
S      -43.77070000     -37.83990000     -70.95380000
S      -42.78390000     -35.87160000     -68.60850000
H      -43.66020000     -33.67930000     -67.69360000
