40
Properties=species:S:1:pos:R:3 #=T CELL(abcABC):=T 1.889726e+02=T 90.00000=T Traj:=T positionsangstrom=T Step:=T 0=T Bead:=T pbc="F F F"
C      -47.98040000     -34.36810000     -68.69040000
C      -46.59100000     -34.62250000     -68.53210000
C      -46.00370000     -35.53600000     -69.35230000
C      -46.64250000     -36.19400000     -70.36550000
C      -47.97990000     -36.01790000     -70.55140000
C      -48.57480000     -34.98800000     -69.79210000
H      -48.57010000     -33.63600000     -68.16580000
H      -44.97450000     -35.64500000     -69.10390000
H      -48.54640000     -36.43810000     -71.37150000
H      -49.64590000     -34.84730000     -70.06750000
C      -45.82910000     -37.14540000     -71.21610000
H      -46.52180000     -37.70380000     -71.80700000
H      -45.21520000     -37.81850000     -70.62440000
C      -45.88750000     -34.09840000     -67.31110000
H      -46.36360000     -33.22340000     -66.86200000
H      -45.97410000     -34.79660000     -66.48260000
S      -44.66850000     -36.14620000     -72.24070000
S      -44.12790000     -33.80610000     -67.64810000
C      -45.84390000     -35.27070000     -73.33980000
H      -45.33210000     -35.00730000     -74.28470000
H      -46.62110000     -36.00260000     -73.58220000
C      -44.03940000     -32.35880000     -68.84470000
H      -42.92520000     -32.21510000     -69.05850000
H      -44.46780000     -31.49550000     -68.43000000
C      -44.70770000     -32.66830000     -70.18490000
H      -44.46260000     -33.65420000     -70.56490000
H      -45.79790000     -32.80190000     -69.99550000
C      -46.52220000     -33.94370000     -72.81180000
H      -46.28410000     -33.99500000     -71.67570000
H      -47.55960000     -33.99390000     -73.04670000
C      -45.86810000     -32.67380000     -73.36460000
C      -46.03330000     -32.28490000     -74.71890000
C      -44.80090000     -31.92310000     -72.70990000
H      -46.76740000     -32.64530000     -75.48350000
C      -44.29480000     -30.89640000     -73.50630000
C      -44.35770000     -31.70640000     -71.28720000
C      -43.61080000     -30.57690000     -71.10890000
S      -45.02220000     -30.89050000     -75.12490000
S      -43.21840000     -29.80700000     -72.70980000
H      -43.22160000     -30.17370000     -70.20670000
