40
Properties=species:S:1:pos:R:3 #=T CELL(abcABC):=T 1.889726e+02=T 90.00000=T Traj:=T positionsangstrom=T Step:=T 0=T Bead:=T pbc="F F F"
C      -43.07350000     -35.34100000     -69.98750000
C      -43.60210000     -36.10420000     -71.07970000
C      -44.94900000     -36.40220000     -71.06970000
C      -45.87330000     -35.87550000     -70.05800000
C      -45.29360000     -35.01380000     -69.10170000
C      -43.89360000     -34.89380000     -68.91730000
H      -42.04720000     -35.11510000     -69.92300000
H      -45.38780000     -36.96160000     -71.87420000
H      -45.90580000     -34.57320000     -68.40240000
H      -43.47130000     -34.37860000     -68.10850000
C      -47.34970000     -36.16920000     -70.14710000
H      -47.56180000     -36.59790000     -69.17100000
H      -47.51860000     -36.81530000     -71.04460000
C      -42.64210000     -36.36240000     -72.22970000
H      -41.66080000     -36.67210000     -71.77460000
H      -42.98130000     -37.28270000     -72.79680000
S      -48.31610000     -34.60970000     -70.09520000
S      -42.36920000     -34.83190000     -73.18360000
C      -48.51620000     -34.15380000     -71.83350000
H      -48.84070000     -35.01210000     -72.30660000
H      -49.51060000     -33.69000000     -71.83230000
C      -44.18290000     -34.37380000     -73.48110000
H      -44.80860000     -34.41920000     -72.56580000
H      -44.75320000     -34.88520000     -74.25030000
C      -44.24720000     -32.82140000     -73.84400000
H      -43.35460000     -32.58830000     -74.38310000
H      -45.03850000     -32.61030000     -74.51400000
C      -47.50250000     -33.27720000     -72.64330000
H      -47.85650000     -33.09050000     -73.60290000
H      -46.62860000     -33.81990000     -72.81730000
C      -47.07210000     -32.04580000     -71.98820000
C      -47.83690000     -31.30980000     -71.07460000
C      -45.67720000     -31.61960000     -72.01080000
H      -48.82790000     -31.60140000     -70.75390000
C      -45.46260000     -30.66050000     -70.96930000
C      -44.37690000     -31.97830000     -72.58340000
C      -43.28400000     -31.21120000     -72.02620000
S      -46.89790000     -30.01100000     -70.31870000
S      -43.81190000     -30.15530000     -70.68760000
H      -42.34110000     -31.23850000     -72.41250000
