40
Properties=species:S:1:pos:R:3 #=T CELL(abcABC):=T 1.889726e+02=T 90.00000=T Traj:=T positionsangstrom=T Step:=T 0=T Bead:=T pbc="F F F"
C      -46.70170000     -35.07270000     -67.81890000
C      -45.37150000     -35.01880000     -68.24240000
C      -45.01230000     -35.70870000     -69.43040000
C      -45.92630000     -36.44400000     -70.24410000
C      -47.28070000     -36.35390000     -69.83020000
C      -47.67910000     -35.70320000     -68.61090000
H      -47.08520000     -34.51890000     -66.94280000
H      -43.95740000     -35.61610000     -69.70250000
H      -48.01490000     -36.77360000     -70.50480000
H      -48.73730000     -35.74630000     -68.32390000
C      -45.51320000     -37.32960000     -71.37030000
H      -46.40740000     -37.53860000     -72.02850000
H      -45.12050000     -38.30820000     -71.07480000
C      -44.35560000     -34.28020000     -67.48940000
H      -44.86640000     -33.61170000     -66.83340000
H      -43.61540000     -34.83940000     -66.85840000
S      -44.13450000     -36.82220000     -72.49760000
S      -43.26850000     -33.12030000     -68.54970000
C      -44.35370000     -34.99490000     -72.87790000
H      -43.79890000     -34.46710000     -72.10100000
H      -43.84250000     -34.70800000     -73.80730000
C      -44.59400000     -31.85540000     -69.00870000
H      -43.99690000     -31.06350000     -69.38330000
H      -45.11950000     -31.75740000     -68.03460000
C      -45.60620000     -32.25870000     -70.14860000
H      -45.30270000     -33.27520000     -70.53220000
H      -46.60730000     -32.14170000     -69.70500000
C      -45.74970000     -34.33360000     -72.82710000
H      -46.19100000     -34.27950000     -71.84090000
H      -46.29380000     -34.96790000     -73.61030000
C      -45.71780000     -32.98970000     -73.42330000
C      -45.96530000     -32.71040000     -74.77360000
C      -45.55020000     -31.75080000     -72.67210000
H      -46.17480000     -33.42050000     -75.62370000
C      -45.54650000     -30.65480000     -73.57120000
C      -45.50890000     -31.33990000     -71.27640000
C      -45.47260000     -29.95880000     -71.17670000
S      -45.95410000     -30.98160000     -75.18740000
S      -45.33300000     -29.15620000     -72.68820000
H      -45.17000000     -29.48030000     -70.25630000
