40
Properties=species:S:1:pos:R:3 #=T CELL(abcABC):=T 1.889726e+02=T 90.00000=T Traj:=T positionsangstrom=T Step:=T 0=T Bead:=T pbc="F F F"
C      -44.39310000     -29.45210000     -72.45890000
C      -45.63000000     -29.83590000     -71.88830000
C      -46.53550000     -30.55150000     -72.66500000
C      -46.09700000     -31.06800000     -73.92880000
C      -44.76570000     -30.98570000     -74.35220000
C      -43.92360000     -30.07060000     -73.66190000
H      -43.76220000     -28.71810000     -71.96630000
H      -47.55440000     -30.84880000     -72.40040000
H      -44.36970000     -31.40180000     -75.23960000
H      -42.91100000     -29.97630000     -73.94990000
C      -47.16680000     -31.74470000     -74.69380000
H      -46.75810000     -31.97930000     -75.72070000
H      -48.06500000     -31.10710000     -74.62700000
C      -45.99390000     -29.34260000     -70.51810000
H      -45.15210000     -28.76740000     -70.06650000
H      -46.81470000     -28.63730000     -70.55460000
S      -47.61740000     -33.32680000     -73.84070000
S      -46.72460000     -30.62470000     -69.38630000
C      -46.13250000     -34.06800000     -72.97380000
H      -45.39680000     -34.40490000     -73.76500000
H      -45.66540000     -33.32160000     -72.28150000
C      -45.33600000     -31.86920000     -69.44280000
H      -44.66650000     -31.58770000     -68.62010000
H      -44.74440000     -31.67980000     -70.35040000
C      -45.87680000     -33.32010000     -69.33280000
H      -46.45730000     -33.42970000     -68.40020000
H      -46.62890000     -33.48870000     -70.12030000
C      -46.63760000     -35.32530000     -72.10200000
H      -47.21790000     -35.96220000     -72.74520000
H      -47.30850000     -35.01610000     -71.23080000
C      -45.50590000     -36.02000000     -71.42920000
C      -45.02140000     -37.25590000     -71.81770000
C      -44.83810000     -35.60990000     -70.17450000
H      -45.33000000     -37.73330000     -72.72340000
C      -43.81230000     -36.45710000     -69.84440000
C      -44.75150000     -34.37260000     -69.39710000
C      -43.63900000     -34.29890000     -68.58860000
S      -43.71690000     -37.82030000     -70.88240000
S      -42.76200000     -35.81440000     -68.58890000
H      -43.40200000     -33.55680000     -67.91120000
