40
Properties=species:S:1:pos:R:3 #=T CELL(abcABC):=T 1.889726e+02=T 90.00000=T Traj:=T positionsangstrom=T Step:=T 0=T Bead:=T pbc="F F F"
C      -47.54380000     -34.21840000     -69.15060000
C      -46.33400000     -34.69780000     -68.62810000
C      -45.66270000     -35.81130000     -69.26470000
C      -46.20920000     -36.46280000     -70.37000000
C      -47.49870000     -36.08670000     -70.75700000
C      -48.14920000     -34.96820000     -70.15320000
H      -48.07680000     -33.48880000     -68.62240000
H      -44.74260000     -36.11550000     -68.87980000
H      -47.98620000     -36.64110000     -71.49560000
H      -49.14180000     -34.61280000     -70.50410000
C      -45.34300000     -37.44770000     -71.16050000
H      -45.92070000     -37.95340000     -71.87560000
H      -45.09220000     -38.26890000     -70.43160000
C      -45.69740000     -34.04230000     -67.45460000
H      -46.25350000     -33.12340000     -67.19540000
H      -45.59810000     -34.78450000     -66.71200000
S      -43.82250000     -36.74780000     -71.98200000
S      -43.93870000     -33.55470000     -67.87520000
C      -44.43900000     -35.52370000     -73.18410000
H      -43.40430000     -35.01530000     -73.31940000
H      -44.73420000     -36.02110000     -74.15650000
C      -44.22310000     -32.03610000     -68.86680000
H      -43.35410000     -31.34700000     -68.84680000
H      -45.16240000     -31.65490000     -68.45600000
C      -44.44980000     -32.52940000     -70.30300000
H      -43.61460000     -33.18050000     -70.61350000
H      -45.49010000     -33.02860000     -70.29940000
C      -45.47740000     -34.44600000     -72.69320000
H      -45.34280000     -34.41320000     -71.64820000
H      -46.50710000     -34.80180000     -72.86520000
C      -45.48440000     -33.00000000     -73.32410000
C      -45.94210000     -32.73380000     -74.57730000
C      -45.12040000     -31.77420000     -72.66730000
H      -46.38800000     -33.33240000     -75.29340000
C      -45.28760000     -30.58220000     -73.43890000
C      -44.61000000     -31.42550000     -71.35250000
C      -44.55150000     -30.07360000     -71.12970000
S      -45.95470000     -30.96470000     -74.96180000
S      -44.90140000     -29.12160000     -72.59390000
H      -44.40810000     -29.62040000     -70.09420000
