40
Properties=species:S:1:pos:R:3 #=T CELL(abcABC):=T 1.889726e+02=T 90.00000=T Traj:=T positionsangstrom=T Step:=T 0=T Bead:=T pbc="F F F"
C      -47.28300000     -34.39170000     -68.65430000
C      -45.94740000     -34.83650000     -68.40310000
C      -45.33720000     -35.68840000     -69.34320000
C      -46.02980000     -36.27030000     -70.46730000
C      -47.35740000     -35.71780000     -70.67940000
C      -48.01080000     -34.84360000     -69.84480000
H      -47.69650000     -33.60080000     -67.95020000
H      -44.31650000     -36.10770000     -69.06100000
H      -47.97160000     -36.19790000     -71.50070000
H      -49.02300000     -34.44080000     -69.97750000
C      -45.35890000     -37.25600000     -71.38960000
H      -46.12910000     -37.44710000     -72.22760000
H      -45.01920000     -38.17980000     -70.94530000
C      -45.18200000     -34.46760000     -67.23250000
H      -45.74580000     -33.96330000     -66.45370000
H      -44.76210000     -35.34410000     -66.72660000
S      -43.82580000     -36.61790000     -72.29590000
S      -43.88150000     -33.21970000     -67.59420000
C      -44.64270000     -35.46180000     -73.60210000
H      -43.76420000     -34.88480000     -73.94050000
H      -45.08370000     -36.02180000     -74.57790000
C      -44.37260000     -32.04130000     -68.90430000
H      -43.63500000     -31.27880000     -68.83140000
H      -45.39460000     -31.60690000     -68.64220000
C      -44.39360000     -32.65890000     -70.31350000
H      -43.34760000     -32.99760000     -70.67700000
H      -45.06250000     -33.48520000     -70.28810000
C      -45.68030000     -34.45650000     -72.92800000
H      -45.42740000     -34.46110000     -71.85090000
H      -46.71410000     -34.83090000     -73.03980000
C      -45.58380000     -33.04170000     -73.52270000
C      -45.89910000     -32.78350000     -74.80610000
C      -45.23200000     -31.87240000     -72.71270000
H      -46.10970000     -33.45290000     -75.55800000
C      -45.41400000     -30.70230000     -73.41800000
C      -44.83870000     -31.67570000     -71.33000000
C      -44.95580000     -30.35230000     -71.02010000
S      -45.79750000     -30.98050000     -75.08260000
S      -45.34420000     -29.29690000     -72.37210000
H      -44.64970000     -29.96790000     -70.08440000
