40
Properties=species:S:1:pos:R:3 #=T CELL(abcABC):=T 1.889726e+02=T 90.00000=T Traj:=T positionsangstrom=T Step:=T 0=T Bead:=T pbc="F F F"
C      -45.62120000     -34.83750000     -67.44900000
C      -44.47320000     -34.88760000     -68.21940000
C      -44.56180000     -35.63740000     -69.41880000
C      -45.69130000     -36.41060000     -69.76410000
C      -46.79200000     -36.39590000     -68.83730000
C      -46.77760000     -35.55900000     -67.74150000
H      -45.67710000     -34.10960000     -66.59870000
H      -43.66000000     -35.61230000     -70.12680000
H      -47.68130000     -37.02050000     -69.07180000
H      -47.56580000     -35.68270000     -67.04300000
C      -45.62150000     -37.26820000     -71.08940000
H      -46.61230000     -37.25870000     -71.55040000
H      -45.31670000     -38.27240000     -70.85600000
C      -43.41660000     -33.93860000     -67.87280000
H      -43.52160000     -33.60170000     -66.78040000
H      -42.47260000     -34.47340000     -67.96650000
S      -44.46710000     -36.90920000     -72.51520000
S      -43.31790000     -32.38070000     -69.02940000
C      -44.50220000     -35.06590000     -72.81650000
H      -44.12760000     -34.53770000     -71.92800000
H      -43.88750000     -34.81860000     -73.70920000
C      -45.12890000     -32.00570000     -69.02860000
H      -45.27130000     -30.87940000     -68.84860000
H      -45.50010000     -32.67180000     -68.17980000
C      -45.99400000     -32.44160000     -70.17890000
H      -45.73390000     -33.44010000     -70.46700000
H      -47.04260000     -32.58280000     -69.90940000
C      -46.01660000     -34.58690000     -73.06630000
H      -46.56480000     -34.65440000     -72.10340000
H      -46.46300000     -35.28280000     -73.78470000
C      -46.03610000     -33.13420000     -73.53800000
C      -45.92240000     -32.95580000     -74.89040000
C      -45.91220000     -31.94300000     -72.80730000
H      -45.97300000     -33.87360000     -75.57400000
C      -45.85270000     -30.76970000     -73.63060000
C      -45.93470000     -31.50730000     -71.38570000
C      -45.89890000     -30.12870000     -71.23610000
S      -45.98730000     -31.21140000     -75.30720000
S      -45.62130000     -29.25220000     -72.82790000
H      -45.72360000     -29.61870000     -70.29700000
