40
Properties=species:S:1:pos:R:3 #=T CELL(abcABC):=T 1.889726e+02=T 90.00000=T Traj:=T positionsangstrom=T Step:=T 0=T Bead:=T pbc="F F F"
C      -47.62890000     -30.47970000     -72.36110000
C      -47.66380000     -31.64030000     -73.09410000
C      -46.51690000     -31.96480000     -73.84990000
C      -45.35510000     -31.17760000     -73.84330000
C      -45.38970000     -30.09040000     -73.01370000
C      -46.47590000     -29.69280000     -72.27670000
H      -48.47670000     -30.26050000     -71.72490000
H      -46.56110000     -32.87200000     -74.37810000
H      -44.44550000     -29.52870000     -72.90450000
H      -46.50050000     -28.84900000     -71.65450000
C      -44.13170000     -31.65680000     -74.68440000
H      -43.91440000     -30.91820000     -75.47740000
H      -44.18270000     -32.53550000     -75.15240000
C      -48.93670000     -32.43380000     -73.36460000
H      -49.87340000     -32.14220000     -72.82010000
H      -49.19670000     -32.28980000     -74.51010000
S      -42.54000000     -31.85000000     -73.55200000
S      -48.70220000     -34.27900000     -73.17470000
C      -42.89190000     -33.20530000     -72.37040000
H      -43.44430000     -33.93370000     -72.97550000
H      -41.88360000     -33.57010000     -72.22040000
C      -48.03120000     -34.39500000     -71.45070000
H      -48.08320000     -35.48210000     -71.25420000
H      -48.72110000     -33.83240000     -70.76750000
C      -46.55580000     -34.09310000     -71.20740000
H      -45.81430000     -34.23930000     -72.02760000
H      -46.61050000     -33.02330000     -71.03260000
C      -43.50030000     -32.62950000     -71.07620000
H      -44.48260000     -32.20330000     -71.26600000
H      -42.86640000     -31.82360000     -70.77970000
C      -43.49930000     -33.58840000     -69.92170000
C      -42.31460000     -33.87030000     -69.23110000
C      -44.62950000     -34.39700000     -69.50230000
H      -41.43770000     -33.31390000     -69.30000000
C      -44.22840000     -35.25680000     -68.44870000
C      -45.95770000     -34.78140000     -69.98240000
C      -46.48280000     -35.81620000     -69.24320000
S      -42.53000000     -35.09230000     -67.99280000
S      -45.44760000     -36.36740000     -67.89530000
H      -47.39420000     -36.42000000     -69.23230000
