40
Properties=species:S:1:pos:R:3 #=T CELL(abcABC):=T 1.889726e+02=T 90.00000=T Traj:=T positionsangstrom=T Step:=T 0=T Bead:=T pbc="F F F"
C      -47.69500000     -30.97000000     -72.56250000
C      -47.45930000     -31.81920000     -73.61930000
C      -46.20430000     -31.83610000     -74.21490000
C      -45.15800000     -31.02460000     -73.78060000
C      -45.38300000     -30.17160000     -72.69750000
C      -46.64290000     -30.17290000     -72.10470000
H      -48.68150000     -30.94030000     -72.07870000
H      -46.03490000     -32.49580000     -75.04480000
H      -44.60740000     -29.58480000     -72.23440000
H      -46.77510000     -29.45450000     -71.24340000
C      -43.75810000     -31.09180000     -74.32630000
H      -43.45620000     -30.13910000     -74.89400000
H      -43.76340000     -31.83770000     -75.13980000
C      -48.52400000     -32.73920000     -74.13940000
H      -49.52170000     -32.40020000     -73.89170000
H      -48.58990000     -32.97610000     -75.16970000
S      -42.42670000     -31.37130000     -73.12370000
S      -48.36760000     -34.46070000     -73.31230000
C      -42.98600000     -32.84540000     -71.98530000
H      -43.62840000     -33.51240000     -72.49790000
H      -42.09250000     -33.39040000     -71.75920000
C      -48.15430000     -34.12400000     -71.41830000
H      -48.53070000     -35.00010000     -70.92130000
H      -48.75210000     -33.26420000     -71.34530000
C      -46.68490000     -33.88620000     -71.03020000
H      -46.06610000     -33.67050000     -71.92860000
H      -46.69590000     -32.91180000     -70.51510000
C      -43.70810000     -32.35660000     -70.72570000
H      -44.73050000     -32.07070000     -71.08880000
H      -43.19530000     -31.49060000     -70.41670000
C      -43.75190000     -33.47940000     -69.70430000
C      -42.68680000     -33.66090000     -68.84500000
C      -44.75690000     -34.45610000     -69.47050000
H      -41.75070000     -33.08960000     -68.71100000
C      -44.45870000     -35.35330000     -68.39820000
C      -45.96860000     -34.89250000     -70.14350000
C      -46.39850000     -36.05950000     -69.69050000
S      -42.87080000     -35.08890000     -67.76520000
S      -45.47680000     -36.83220000     -68.45110000
H      -47.24140000     -36.52430000     -70.17490000
