40
Properties=species:S:1:pos:R:3 #=T CELL(abcABC):=T 1.889726e+02=T 90.00000=T Traj:=T positionsangstrom=T Step:=T 0=T Bead:=T pbc="F F F"
C      -46.76340000     -29.41870000     -72.08140000
C      -47.27060000     -30.70550000     -72.36650000
C      -46.68230000     -31.57070000     -73.30280000
C      -45.55610000     -31.09320000     -74.03030000
C      -45.02650000     -29.82460000     -73.68100000
C      -45.58060000     -28.99520000     -72.72540000
H      -47.31470000     -28.85440000     -71.32610000
H      -47.08880000     -32.63000000     -73.48440000
H      -44.13500000     -29.40930000     -74.24850000
H      -44.99520000     -28.12020000     -72.52760000
C      -44.76450000     -31.89050000     -75.02140000
H      -44.42640000     -31.27330000     -75.83930000
H      -45.33790000     -32.73190000     -75.42560000
C      -48.52010000     -31.21110000     -71.65760000
H      -48.57110000     -30.85840000     -70.63020000
H      -49.36100000     -30.63430000     -72.19600000
S      -43.06440000     -32.57730000     -74.30190000
S      -48.83470000     -32.97530000     -71.69220000
C      -43.62310000     -34.01430000     -73.26170000
H      -44.34580000     -34.65580000     -73.76210000
H      -42.68310000     -34.53340000     -73.21340000
C      -47.73040000     -33.58250000     -70.32470000
H      -48.34110000     -33.50080000     -69.44360000
H      -46.86490000     -32.93340000     -70.17190000
C      -47.23250000     -34.96170000     -70.67600000
H      -48.03120000     -35.77230000     -70.64580000
H      -46.88660000     -35.00710000     -71.73310000
C      -44.22080000     -33.47070000     -71.92660000
H      -45.28480000     -33.41510000     -72.13280000
H      -43.88680000     -32.49810000     -71.63450000
C      -43.87050000     -34.28780000     -70.73410000
C      -42.53660000     -34.24960000     -70.32440000
C      -44.70170000     -35.13510000     -69.88380000
H      -41.76500000     -33.78350000     -70.98950000
C      -43.93120000     -35.74410000     -68.92170000
C      -46.11430000     -35.36810000     -69.65900000
C      -46.37480000     -36.12610000     -68.50400000
S      -42.23540000     -35.35780000     -69.00000000
S      -44.88320000     -36.50460000     -67.61840000
H      -47.31080000     -36.43170000     -68.23360000
