40
Properties=species:S:1:pos:R:3 #=T CELL(abcABC):=T 1.889726e+02=T 90.00000=T Traj:=T positionsangstrom=T Step:=T 0=T Bead:=T pbc="F F F"
C      -46.90970000     -29.45840000     -72.14780000
C      -47.27750000     -30.79840000     -72.41590000
C      -46.52130000     -31.57690000     -73.29550000
C      -45.29560000     -31.03830000     -73.80610000
C      -44.78780000     -29.82030000     -73.30180000
C      -45.61960000     -29.04420000     -72.47430000
H      -47.64130000     -28.87000000     -71.67390000
H      -46.98020000     -32.51790000     -73.62320000
H      -43.85520000     -29.42270000     -73.65120000
H      -45.16740000     -28.07310000     -72.17880000
C      -44.61600000     -31.94710000     -74.89550000
H      -44.50860000     -31.47530000     -75.87470000
H      -45.36640000     -32.80810000     -75.13730000
C      -48.64450000     -31.20960000     -71.87140000
H      -48.83660000     -30.90000000     -70.84440000
H      -49.33370000     -30.71160000     -72.50840000
S      -42.98060000     -32.71340000     -74.42660000
S      -48.94290000     -33.07900000     -71.83220000
C      -43.52350000     -34.02350000     -73.20000000
H      -44.23110000     -34.68510000     -73.60340000
H      -42.55260000     -34.49020000     -72.89510000
C      -47.79990000     -33.52140000     -70.45030000
H      -48.43750000     -33.57370000     -69.47700000
H      -47.03330000     -32.77480000     -70.35110000
C      -47.18050000     -34.88640000     -70.73330000
H      -47.93930000     -35.63510000     -70.87660000
H      -46.80390000     -34.74180000     -71.72400000
C      -44.16460000     -33.48160000     -71.92900000
H      -45.26180000     -33.62260000     -72.11490000
H      -44.03360000     -32.39130000     -71.96340000
C      -43.82910000     -34.23160000     -70.69480000
C      -42.50450000     -34.34370000     -70.33470000
C      -44.75640000     -34.91170000     -69.78760000
H      -41.71480000     -33.80430000     -70.86660000
C      -43.99760000     -35.48980000     -68.76240000
C      -46.15050000     -35.29660000     -69.69510000
C      -46.38950000     -36.20300000     -68.68100000
S      -42.31330000     -35.31430000     -68.86100000
S      -44.96680000     -36.44710000     -67.71560000
H      -47.35460000     -36.50120000     -68.40200000
