40
Properties=species:S:1:pos:R:3 #=T CELL(abcABC):=T 1.889726e+02=T 90.00000=T Traj:=T positionsangstrom=T Step:=T 0=T Bead:=T pbc="F F F"
C      -44.63710000     -29.36070000     -72.27990000
C      -45.91910000     -29.79390000     -71.89660000
C      -46.56450000     -30.69130000     -72.74770000
C      -45.95810000     -31.19200000     -73.89100000
C      -44.63280000     -30.90580000     -74.17430000
C      -44.01810000     -29.91020000     -73.39970000
H      -44.11480000     -28.59540000     -71.67170000
H      -47.64490000     -31.03430000     -72.58680000
H      -44.13340000     -31.43940000     -75.03280000
H      -42.99790000     -29.57590000     -73.66650000
C      -46.81200000     -32.03000000     -74.76210000
H      -46.30580000     -32.49040000     -75.65290000
H      -47.78180000     -31.58960000     -75.07350000
C      -46.52590000     -29.35350000     -70.59600000
H      -45.95580000     -28.59310000     -70.12010000
H      -47.55280000     -28.95470000     -70.80690000
S      -47.60010000     -33.50180000     -73.85200000
S      -46.84490000     -30.71990000     -69.32600000
C      -46.09070000     -34.38690000     -73.17610000
H      -45.58860000     -34.86910000     -74.03940000
H      -45.38340000     -33.60980000     -72.77580000
C      -45.40390000     -31.79980000     -69.50070000
H      -44.69390000     -31.71600000     -68.70940000
H      -44.91880000     -31.56550000     -70.45310000
C      -45.86450000     -33.23650000     -69.68540000
H      -46.78670000     -33.44870000     -69.17710000
H      -46.22430000     -33.37520000     -70.73650000
C      -46.52410000     -35.37020000     -72.10180000
H      -47.07950000     -36.19070000     -72.64300000
H      -47.13150000     -34.87570000     -71.41630000
C      -45.39080000     -36.03110000     -71.39300000
C      -44.91140000     -37.28310000     -71.72470000
C      -44.65890000     -35.44350000     -70.35920000
H      -45.34860000     -38.00520000     -72.40510000
C      -43.63290000     -36.27090000     -69.88870000
C      -44.81340000     -34.30270000     -69.44140000
C      -43.86480000     -34.24330000     -68.45340000
S      -43.42400000     -37.64740000     -70.92700000
S      -42.84990000     -35.67660000     -68.45840000
H      -43.82440000     -33.48340000     -67.59150000
