40
Properties=species:S:1:pos:R:3 #=T CELL(abcABC):=T 1.889726e+02=T 90.00000=T Traj:=T positionsangstrom=T Step:=T 0=T Bead:=T pbc="F F F"
C      -46.98510000     -30.00320000     -71.88120000
C      -47.50740000     -31.06360000     -72.63210000
C      -46.61240000     -31.77900000     -73.49870000
C      -45.22780000     -31.37740000     -73.60690000
C      -44.77170000     -30.25500000     -72.89130000
C      -45.63940000     -29.59420000     -72.04500000
H      -47.64540000     -29.37700000     -71.31400000
H      -46.99270000     -32.59220000     -74.12610000
H      -43.79790000     -29.84820000     -73.07250000
H      -45.19310000     -28.70900000     -71.49750000
C      -44.41970000     -31.83260000     -74.85710000
H      -43.93810000     -30.94120000     -75.29120000
H      -45.03210000     -32.35370000     -75.55280000
C      -48.92650000     -31.43780000     -72.57380000
H      -49.40150000     -30.78170000     -71.82030000
H      -49.32050000     -31.38060000     -73.56510000
S      -43.02120000     -32.98030000     -74.43520000
S      -49.29820000     -33.17290000     -71.94820000
C      -43.39420000     -33.69300000     -72.76150000
H      -44.27760000     -34.38480000     -72.89570000
H      -42.46840000     -34.25500000     -72.56670000
C      -48.03540000     -33.70890000     -70.63480000
H      -48.49530000     -34.64330000     -70.25830000
H      -47.97990000     -33.05460000     -69.81340000
C      -46.63900000     -34.15640000     -71.17730000
H      -46.62590000     -34.81420000     -72.05580000
H      -46.08410000     -33.25370000     -71.52570000
C      -43.69870000     -32.85810000     -71.46840000
H      -44.67480000     -32.35440000     -71.49520000
H      -42.81090000     -32.13810000     -71.36600000
C      -43.57160000     -33.73570000     -70.29370000
C      -42.39160000     -33.76100000     -69.58100000
C      -44.49490000     -34.75240000     -69.82010000
H      -41.49040000     -33.10800000     -69.66670000
C      -43.97800000     -35.52610000     -68.79430000
C      -45.83830000     -35.00010000     -70.12560000
C      -46.31590000     -36.10010000     -69.48070000
S      -42.35660000     -34.98050000     -68.26980000
S      -45.20720000     -36.74490000     -68.32390000
H      -47.32520000     -36.39830000     -69.58180000
