40
Properties=species:S:1:pos:R:3 #=T CELL(abcABC):=T 1.889726e+02=T 90.00000=T Traj:=T positionsangstrom=T Step:=T 0=T Bead:=T pbc="F F F"
C      -46.68570000     -30.07810000     -71.64980000
C      -47.46450000     -30.90760000     -72.56450000
C      -46.73140000     -31.66350000     -73.51180000
C      -45.40450000     -31.32300000     -73.82770000
C      -44.68750000     -30.37200000     -73.04650000
C      -45.29460000     -29.81360000     -71.89450000
H      -47.11260000     -29.39050000     -70.97220000
H      -47.28830000     -32.43570000     -74.09210000
H      -43.59760000     -30.12970000     -73.25880000
H      -44.79130000     -29.14050000     -71.24560000
C      -44.80840000     -31.97230000     -75.01850000
H      -44.75760000     -31.34660000     -75.86750000
H      -45.41570000     -32.82440000     -75.27160000
C      -48.91660000     -31.13200000     -72.19690000
H      -49.27490000     -30.42260000     -71.42870000
H      -49.56770000     -31.02020000     -73.08890000
S      -43.05810000     -32.55370000     -74.52050000
S      -49.06250000     -32.95210000     -71.76010000
C      -43.60120000     -33.64230000     -73.07060000
H      -44.54640000     -34.07060000     -73.40370000
H      -42.75110000     -34.32100000     -72.98840000
C      -47.52510000     -33.36770000     -70.83300000
H      -47.84860000     -33.58120000     -69.73330000
H      -46.92940000     -32.44250000     -70.79260000
C      -46.75770000     -34.61910000     -71.30470000
H      -47.41830000     -35.41630000     -71.68230000
H      -46.10390000     -34.39860000     -72.13740000
C      -43.85220000     -33.07800000     -71.60320000
H      -44.83090000     -32.53260000     -71.55090000
H      -43.18050000     -32.25680000     -71.45710000
C      -43.52230000     -34.11410000     -70.54600000
C      -42.34740000     -34.28580000     -69.87620000
C      -44.54210000     -34.85490000     -69.84440000
H      -41.35540000     -33.96270000     -70.23320000
C      -44.10510000     -35.46470000     -68.69140000
C      -45.93520000     -35.20850000     -70.13450000
C      -46.43310000     -36.11420000     -69.25850000
S      -42.38470000     -35.28560000     -68.41620000
S      -45.29390000     -36.51260000     -67.96740000
H      -47.46150000     -36.56720000     -69.28680000
