40
Properties=species:S:1:pos:R:3 #=T CELL(abcABC):=T 1.889726e+02=T 90.00000=T Traj:=T positionsangstrom=T Step:=T 0=T Bead:=T pbc="F F F"
C      -46.83900000     -30.02790000     -71.72260000
C      -47.51900000     -30.83710000     -72.61240000
C      -46.72670000     -31.42410000     -73.67290000
C      -45.33700000     -31.14180000     -73.86420000
C      -44.70590000     -30.22040000     -73.00630000
C      -45.47600000     -29.73740000     -71.98340000
H      -47.25310000     -29.85510000     -70.79280000
H      -47.15100000     -32.20330000     -74.31910000
H      -43.64180000     -29.99480000     -73.04860000
H      -44.99030000     -29.13020000     -71.24280000
C      -44.51130000     -31.93630000     -74.87030000
H      -44.07900000     -31.26740000     -75.60920000
H      -45.19800000     -32.62770000     -75.44170000
C      -48.94290000     -31.31350000     -72.40370000
H      -49.52000000     -30.70610000     -71.68870000
H      -49.54790000     -31.25430000     -73.31010000
S      -43.03210000     -32.81290000     -74.31250000
S      -49.21730000     -33.11440000     -71.86490000
C      -43.44160000     -33.87810000     -72.88970000
H      -44.33730000     -34.43170000     -73.05080000
H      -42.72030000     -34.70420000     -72.76550000
C      -47.87700000     -33.47840000     -70.57940000
H      -48.45720000     -33.81510000     -69.67770000
H      -47.28720000     -32.70330000     -70.38330000
C      -46.95910000     -34.57160000     -71.18890000
H      -47.60440000     -35.39000000     -71.52250000
H      -46.48750000     -34.10140000     -72.06470000
C      -43.48070000     -33.02790000     -71.63970000
H      -44.21370000     -32.25530000     -71.75960000
H      -42.52610000     -32.56410000     -71.52530000
C      -43.51880000     -33.86480000     -70.39550000
C      -42.37150000     -33.96860000     -69.63430000
C      -44.54540000     -34.77690000     -69.88980000
H      -41.46030000     -33.31420000     -69.75710000
C      -44.03400000     -35.52830000     -68.87260000
C      -45.91790000     -35.03980000     -70.10310000
C      -46.40830000     -36.00260000     -69.26740000
S      -42.37640000     -35.22510000     -68.44010000
S      -45.18610000     -36.60010000     -68.18730000
H      -47.38310000     -36.39790000     -69.34920000
