40
Properties=species:S:1:pos:R:3 #=T CELL(abcABC):=T 1.889726e+02=T 90.00000=T Traj:=T positionsangstrom=T Step:=T 0=T Bead:=T pbc="F F F"
C      -47.00610000     -30.20400000     -71.85830000
C      -47.45140000     -31.26440000     -72.66980000
C      -46.54040000     -31.77730000     -73.63800000
C      -45.28090000     -31.23410000     -73.78850000
C      -44.86830000     -30.05420000     -73.08230000
C      -45.78490000     -29.51790000     -72.17080000
H      -47.75680000     -29.76920000     -71.10590000
H      -46.80390000     -32.59350000     -74.31930000
H      -43.93790000     -29.55730000     -73.33260000
H      -45.64440000     -28.52400000     -71.64990000
C      -44.41990000     -31.96760000     -74.82100000
H      -44.03170000     -31.21140000     -75.57580000
H      -45.05230000     -32.61510000     -75.40390000
C      -48.85860000     -31.69770000     -72.45380000
H      -49.22730000     -31.03640000     -71.65880000
H      -49.50290000     -31.33300000     -73.28800000
S      -42.99520000     -32.94300000     -74.20510000
S      -49.24500000     -33.48890000     -72.09530000
C      -43.47180000     -33.82000000     -72.62190000
H      -44.52070000     -34.12040000     -72.65400000
H      -42.79910000     -34.66970000     -72.52530000
C      -48.11700000     -33.77470000     -70.73530000
H      -48.53540000     -34.47710000     -70.02910000
H      -48.03480000     -32.77550000     -70.14470000
C      -46.72560000     -34.16120000     -71.25960000
H      -47.00770000     -34.84460000     -72.07270000
H      -46.23900000     -33.36360000     -71.78500000
C      -43.33530000     -32.82360000     -71.45670000
H      -43.97370000     -31.98650000     -71.57630000
H      -42.37150000     -32.32600000     -71.42950000
C      -43.44200000     -33.52960000     -70.18460000
C      -42.34750000     -33.72050000     -69.33810000
C      -44.55780000     -34.38390000     -69.78490000
H      -41.36800000     -33.30830000     -69.37600000
C      -44.07200000     -35.32500000     -68.80740000
C      -45.86400000     -34.82780000     -70.17760000
C      -46.27920000     -35.99890000     -69.60120000
S      -42.54760000     -35.01310000     -68.11450000
S      -45.08640000     -36.62390000     -68.43700000
H      -47.32870000     -36.39610000     -69.62650000
