40
Properties=species:S:1:pos:R:3 #=T CELL(abcABC):=T 1.889726e+02=T 90.00000=T Traj:=T positionsangstrom=T Step:=T 0=T Bead:=T pbc="F F F"
C      -47.41090000     -29.29650000     -72.45290000
C      -47.73130000     -30.62190000     -72.07620000
C      -47.21510000     -31.71160000     -72.83460000
C      -46.34550000     -31.53970000     -73.89270000
C      -45.95670000     -30.22290000     -74.20150000
C      -46.46260000     -29.15130000     -73.49030000
H      -47.87330000     -28.34060000     -72.10170000
H      -47.60810000     -32.69260000     -72.53100000
H      -45.23520000     -30.05800000     -75.09670000
H      -46.27080000     -28.12080000     -73.85710000
C      -46.02640000     -32.62400000     -74.90670000
H      -46.33520000     -32.26590000     -75.89340000
H      -46.68420000     -33.48390000     -74.67870000
C      -48.75710000     -30.79560000     -70.94520000
H      -48.40970000     -30.10940000     -70.18560000
H      -49.74670000     -30.43120000     -71.24500000
S      -44.19470000     -32.97530000     -74.83470000
S      -48.90410000     -32.50220000     -70.23280000
C      -43.97660000     -34.20350000     -73.40970000
H      -44.91090000     -34.77650000     -73.48390000
H      -43.11390000     -34.84050000     -73.59990000
C      -47.05310000     -32.95690000     -69.90400000
H      -46.81970000     -32.83150000     -68.76540000
H      -46.46040000     -32.13990000     -70.36930000
C      -46.67410000     -34.44560000     -70.21310000
H      -47.57990000     -35.04700000     -70.08480000
H      -46.42510000     -34.66510000     -71.30000000
C      -43.92380000     -33.47790000     -72.10810000
H      -44.85750000     -32.99350000     -71.88080000
H      -43.30190000     -32.62320000     -72.20860000
C      -43.34220000     -34.26320000     -70.99050000
C      -41.97610000     -34.58500000     -71.00630000
C      -44.08700000     -34.85550000     -69.90610000
H      -41.30370000     -34.27180000     -71.77380000
C      -43.22790000     -35.64290000     -69.12540000
C      -45.47320000     -35.04420000     -69.49740000
C      -45.59340000     -35.85980000     -68.40920000
S      -41.56100000     -35.68480000     -69.64710000
S      -43.99470000     -36.42400000     -67.81700000
H      -46.51050000     -36.09040000     -67.72270000
