40
Properties=species:S:1:pos:R:3 #=T CELL(abcABC):=T 1.889726e+02=T 90.00000=T Traj:=T positionsangstrom=T Step:=T 0=T Bead:=T pbc="F F F"
C      -46.96190000     -29.55480000     -71.99890000
C      -47.73580000     -30.67750000     -71.66420000
C      -47.68590000     -31.81740000     -72.48580000
C      -46.96640000     -31.75220000     -73.68910000
C      -46.07920000     -30.68540000     -73.93810000
C      -46.16370000     -29.59280000     -73.15410000
H      -47.14590000     -28.54450000     -71.52650000
H      -48.34160000     -32.65270000     -72.31530000
H      -45.56820000     -30.78160000     -74.86150000
H      -45.59420000     -28.72570000     -73.37600000
C      -47.12550000     -32.96810000     -74.59060000
H      -47.50830000     -32.64350000     -75.56690000
H      -47.70160000     -33.73120000     -74.14370000
C      -48.62340000     -30.64700000     -70.42900000
H      -48.36090000     -29.75780000     -69.77760000
H      -49.71030000     -30.53820000     -70.68700000
S      -45.48260000     -33.73790000     -75.12560000
S      -48.44670000     -32.09920000     -69.20560000
C      -44.82980000     -34.43240000     -73.51480000
H      -45.75350000     -34.64630000     -72.98270000
H      -44.31840000     -35.36300000     -73.73250000
C      -46.56660000     -32.49930000     -69.31770000
H      -46.17000000     -32.63020000     -68.34510000
H      -46.05010000     -31.68460000     -69.84260000
C      -46.28260000     -33.77560000     -70.11190000
H      -47.09090000     -34.47200000     -69.97020000
H      -46.30350000     -33.61580000     -71.20460000
C      -43.87030000     -33.60620000     -72.73120000
H      -44.40900000     -32.75450000     -72.32190000
H      -43.02700000     -33.38250000     -73.38570000
C      -43.22040000     -34.28170000     -71.53160000
C      -41.86450000     -34.59160000     -71.68130000
C      -43.76600000     -34.73890000     -70.30540000
H      -41.28350000     -34.36460000     -72.48150000
C      -42.84160000     -35.52120000     -69.56470000
C      -45.00280000     -34.55610000     -69.63560000
C      -45.08500000     -35.32020000     -68.47530000
S      -41.25340000     -35.51220000     -70.28150000
S      -43.65410000     -36.33730000     -68.20040000
H      -45.99880000     -35.63190000     -67.86590000
