40
Properties=species:S:1:pos:R:3 #=T CELL(abcABC):=T 1.889726e+02=T 90.00000=T Traj:=T positionsangstrom=T Step:=T 0=T Bead:=T pbc="F F F"
C      -43.55930000     -34.29350000     -72.76220000
C      -43.18530000     -32.98230000     -72.81170000
C      -44.10690000     -32.02090000     -73.32740000
C      -45.37870000     -32.40670000     -73.70030000
C      -45.64260000     -33.83050000     -73.78730000
C      -44.71930000     -34.73890000     -73.32670000
H      -42.83330000     -34.99520000     -72.27850000
H      -43.88610000     -30.92030000     -73.53620000
H      -46.69120000     -34.07590000     -74.03930000
H      -44.84760000     -35.82580000     -73.34560000
C      -46.33540000     -31.38420000     -74.08170000
H      -46.92440000     -31.59880000     -75.00430000
H      -45.93050000     -30.34730000     -74.22410000
C      -41.83770000     -32.65750000     -72.22900000
H      -41.05650000     -33.25640000     -72.62370000
H      -41.47830000     -31.68570000     -72.56550000
S      -47.76790000     -31.10280000     -72.89180000
S      -41.79310000     -32.77030000     -70.34040000
C      -46.86260000     -30.72040000     -71.35040000
H      -45.78860000     -30.79880000     -71.55990000
H      -46.96440000     -29.69200000     -71.11530000
C      -43.33030000     -31.91130000     -69.80730000
H      -43.98130000     -31.77720000     -70.67350000
H      -43.02630000     -30.91100000     -69.52040000
C      -44.21030000     -32.60460000     -68.64260000
H      -43.62490000     -32.74150000     -67.76700000
H      -44.90680000     -31.80470000     -68.37500000
C      -47.25010000     -31.59650000     -70.10430000
H      -48.28490000     -31.36430000     -69.84090000
H      -46.54810000     -31.22530000     -69.33730000
C      -47.10270000     -33.09240000     -70.33380000
C      -48.14610000     -33.77720000     -71.03720000
C      -46.08540000     -34.02190000     -69.89660000
H      -48.92900000     -33.26290000     -71.55130000
C      -46.30210000     -35.37110000     -70.29600000
C      -44.85880000     -33.86140000     -69.17780000
C      -44.21910000     -35.13070000     -69.04080000
S      -47.82050000     -35.50540000     -71.10580000
S      -44.95230000     -36.42970000     -69.90220000
H      -43.21760000     -35.24500000     -68.64480000
