40
Properties=species:S:1:pos:R:3 #=T CELL(abcABC):=T 1.889726e+02=T 90.00000=T Traj:=T positionsangstrom=T Step:=T 0=T Bead:=T pbc="F F F"
C      -46.05390000     -29.99430000     -71.90790000
C      -47.15940000     -30.78810000     -71.51180000
C      -47.71780000     -31.70390000     -72.38800000
C      -47.14720000     -31.90020000     -73.64680000
C      -46.04330000     -31.15000000     -74.03110000
C      -45.50300000     -30.19070000     -73.19170000
H      -45.59580000     -29.33780000     -71.13690000
H      -48.63300000     -32.24240000     -72.09190000
H      -45.62590000     -31.32810000     -75.05080000
H      -44.53050000     -29.63360000     -73.39420000
C      -47.66660000     -33.08740000     -74.45380000
H      -48.17140000     -32.81700000     -75.36140000
H      -48.31730000     -33.64120000     -73.82820000
C      -47.85470000     -30.51500000     -70.21060000
H      -47.16650000     -29.98840000     -69.54620000
H      -48.78770000     -29.89730000     -70.25350000
S      -46.30780000     -34.23710000     -74.99600000
S      -48.23060000     -32.06210000     -69.26960000
C      -45.43490000     -34.77560000     -73.46660000
H      -46.20990000     -35.01100000     -72.64040000
H      -44.86870000     -35.65050000     -73.74120000
C      -46.55790000     -32.82650000     -68.97210000
H      -46.42390000     -33.02470000     -67.93950000
H      -45.86760000     -32.07490000     -69.29980000
C      -46.44610000     -34.18410000     -69.65270000
H      -47.20610000     -34.94540000     -69.34060000
H      -46.73180000     -33.95020000     -70.66940000
C      -44.49610000     -33.63740000     -72.87610000
H      -45.17640000     -32.84940000     -72.53520000
H      -43.75500000     -33.36210000     -73.61610000
C      -43.65870000     -34.21100000     -71.81280000
C      -42.31700000     -34.29730000     -72.07620000
C      -43.93030000     -34.61890000     -70.41410000
H      -41.85340000     -34.00140000     -73.07100000
C      -42.77830000     -35.10070000     -69.79320000
C      -45.02080000     -34.70880000     -69.47430000
C      -44.67820000     -35.18050000     -68.25780000
S      -41.35050000     -34.89430000     -70.76790000
S      -43.02700000     -35.70010000     -68.14350000
H      -45.37280000     -35.32660000     -67.41630000
