40
Properties=species:S:1:pos:R:3 #=T CELL(abcABC):=T 1.889726e+02=T 90.00000=T Traj:=T positionsangstrom=T Step:=T 0=T Bead:=T pbc="F F F"
C      -46.20390000     -29.94160000     -71.89080000
C      -47.27840000     -30.77450000     -71.44620000
C      -47.70330000     -31.79350000     -72.36600000
C      -47.09840000     -31.94160000     -73.62490000
C      -46.08860000     -31.09390000     -74.02820000
C      -45.67180000     -30.07150000     -73.18270000
H      -45.87530000     -29.11980000     -71.28120000
H      -48.50330000     -32.47890000     -72.02200000
H      -45.51010000     -31.29780000     -74.99560000
H      -44.84290000     -29.36160000     -73.54180000
C      -47.50110000     -33.05560000     -74.51270000
H      -47.82500000     -32.74220000     -75.54400000
H      -48.28610000     -33.71400000     -74.12680000
C      -47.99940000     -30.56400000     -70.20030000
H      -47.48990000     -29.76600000     -69.62020000
H      -48.94330000     -30.02630000     -70.47390000
S      -46.09590000     -34.15560000     -75.02700000
S      -48.33360000     -32.04910000     -69.16330000
C      -45.14040000     -34.57900000     -73.46820000
H      -45.83340000     -35.09140000     -72.81680000
H      -44.38400000     -35.30000000     -73.71590000
C      -46.60290000     -32.78930000     -69.24850000
H      -46.27030000     -32.78820000     -68.17020000
H      -46.02020000     -31.95810000     -69.69490000
C      -46.38590000     -34.05690000     -70.05310000
H      -47.11430000     -34.72260000     -69.57580000
H      -46.55890000     -33.91230000     -71.08140000
C      -44.38810000     -33.44850000     -72.63050000
H      -45.01410000     -32.72060000     -72.12350000
H      -43.74770000     -32.85100000     -73.32610000
C      -43.43480000     -34.07580000     -71.65910000
C      -42.10810000     -34.32780000     -71.96300000
C      -43.80230000     -34.62870000     -70.40870000
H      -41.59630000     -34.01950000     -72.91530000
C      -42.79100000     -35.25190000     -69.69000000
C      -45.01790000     -34.65220000     -69.70630000
C      -44.99310000     -35.23490000     -68.47960000
S      -41.30870000     -35.21870000     -70.65530000
S      -43.29920000     -35.75250000     -68.11830000
H      -45.64920000     -35.24990000     -67.66890000
