40
Properties=species:S:1:pos:R:3 #=T CELL(abcABC):=T 1.889726e+02=T 90.00000=T Traj:=T positionsangstrom=T Step:=T 0=T Bead:=T pbc="F F F"
C      -46.62230000     -29.72300000     -71.92410000
C      -47.60850000     -30.67030000     -71.56790000
C      -47.89340000     -31.75500000     -72.48480000
C      -47.06960000     -31.84760000     -73.63000000
C      -46.12450000     -30.87900000     -73.95510000
C      -45.87420000     -29.84360000     -73.08940000
H      -46.33420000     -29.01730000     -71.18160000
H      -48.57260000     -32.56400000     -72.34700000
H      -45.56870000     -30.96390000     -74.88560000
H      -45.19990000     -29.02250000     -73.36820000
C      -47.26990000     -33.11080000     -74.58330000
H      -47.84390000     -32.84440000     -75.45870000
H      -47.94780000     -33.75380000     -73.95000000
C      -48.36240000     -30.48640000     -70.29580000
H      -47.97540000     -29.60780000     -69.74690000
H      -49.41940000     -30.44740000     -70.55750000
S      -45.65530000     -33.93340000     -75.04060000
S      -48.32090000     -32.01310000     -69.25810000
C      -44.95350000     -34.53430000     -73.40440000
H      -45.84820000     -34.82780000     -72.88800000
H      -44.34880000     -35.51410000     -73.62110000
C      -46.57670000     -32.70940000     -69.12130000
H      -46.37620000     -33.05440000     -68.09410000
H      -45.82450000     -31.95990000     -69.37240000
C      -46.31910000     -33.90510000     -70.08000000
H      -47.10760000     -34.63810000     -69.91660000
H      -46.45050000     -33.57840000     -71.15400000
C      -44.10400000     -33.54730000     -72.70620000
H      -44.63040000     -32.69740000     -72.35610000
H      -43.50720000     -33.03550000     -73.51980000
C      -43.34210000     -34.15160000     -71.64030000
C      -42.00180000     -34.51240000     -71.75970000
C      -43.84230000     -34.69420000     -70.40360000
H      -41.36630000     -34.17970000     -72.54670000
C      -42.83970000     -35.37140000     -69.63610000
C      -45.08620000     -34.67000000     -69.74520000
C      -45.01300000     -35.39700000     -68.55050000
S      -41.35180000     -35.40090000     -70.46830000
S      -43.43050000     -35.99710000     -68.18720000
H      -45.75060000     -35.68420000     -67.81570000
