40
Properties=species:S:1:pos:R:3 #=T CELL(abcABC):=T 1.889726e+02=T 90.00000=T Traj:=T positionsangstrom=T Step:=T 0=T Bead:=T pbc="F F F"
C      -45.12920000     -37.54030000     -70.96390000
C      -46.26340000     -36.71430000     -70.72470000
C      -46.89810000     -36.02800000     -71.79570000
C      -46.37680000     -36.09520000     -73.05910000
C      -45.27390000     -36.94340000     -73.32970000
C      -44.62750000     -37.66610000     -72.25500000
H      -44.70560000     -37.94940000     -70.11080000
H      -47.81610000     -35.50540000     -71.57190000
H      -44.94370000     -37.00130000     -74.29010000
H      -43.74260000     -38.27290000     -72.33410000
C      -46.83540000     -35.26500000     -74.17990000
H      -47.93910000     -35.27880000     -74.41800000
H      -46.31350000     -35.61470000     -75.04650000
C      -46.82140000     -36.53730000     -69.31710000
H      -47.92420000     -36.25340000     -69.29760000
H      -46.77220000     -37.60620000     -68.96780000
S      -46.25260000     -33.46170000     -74.12400000
S      -45.84360000     -35.56770000     -68.05100000
C      -47.51730000     -32.64930000     -73.09020000
H      -47.89730000     -31.85330000     -73.66010000
H      -48.39490000     -33.33570000     -73.03750000
C      -45.00660000     -34.38680000     -69.19010000
H      -45.35300000     -34.51360000     -70.19750000
H      -43.95160000     -34.61510000     -69.07610000
C      -45.30800000     -32.95580000     -68.78370000
H      -46.42720000     -32.78350000     -68.89650000
H      -44.99610000     -32.81680000     -67.73820000
C      -47.02440000     -32.18150000     -71.68330000
H      -46.63220000     -33.02020000     -71.22310000
H      -47.88050000     -31.84590000     -71.05490000
C      -45.97160000     -31.13170000     -71.71010000
C      -45.76270000     -30.15250000     -72.67220000
C      -44.84130000     -31.20480000     -70.82220000
H      -46.53080000     -29.89720000     -73.35630000
C      -43.80000000     -30.28720000     -71.18930000
C      -44.50000000     -32.00020000     -69.64590000
C      -43.20650000     -31.65470000     -69.20910000
S      -44.17030000     -29.40480000     -72.65130000
S      -42.36600000     -30.53900000     -70.30190000
H      -42.75260000     -32.16310000     -68.40460000
