40
Properties=species:S:1:pos:R:3 #=T CELL(abcABC):=T 1.889726e+02=T 90.00000=T Traj:=T positionsangstrom=T Step:=T 0=T Bead:=T pbc="F F F"
C      -46.61070000     -29.98100000     -71.95540000
C      -47.62710000     -30.74330000     -71.35840000
C      -48.14110000     -31.80120000     -72.15380000
C      -47.72150000     -32.00290000     -73.45370000
C      -46.87430000     -31.10280000     -74.14820000
C      -46.27450000     -30.15230000     -73.32140000
H      -45.97760000     -29.37440000     -71.24260000
H      -48.93650000     -32.39130000     -71.71610000
H      -46.62940000     -31.16470000     -75.19660000
H      -45.58180000     -29.35780000     -73.70020000
C      -48.27060000     -33.16630000     -74.17330000
H      -48.70000000     -32.76790000     -75.12440000
H      -49.13100000     -33.58980000     -73.68900000
C      -47.92600000     -30.47550000     -69.87890000
H      -47.28160000     -29.70600000     -69.60220000
H      -48.93580000     -30.16590000     -69.76170000
S      -47.02050000     -34.35290000     -74.63960000
S      -47.72730000     -31.94670000     -68.79820000
C      -45.98950000     -34.77250000     -73.10550000
H      -46.64360000     -35.13920000     -72.30260000
H      -45.48730000     -35.62880000     -73.51650000
C      -45.90680000     -32.34700000     -69.12380000
H      -45.28800000     -32.17060000     -68.20770000
H      -45.60150000     -31.68440000     -69.92760000
C      -45.74510000     -33.88480000     -69.25970000
H      -46.16970000     -34.24110000     -68.28400000
H      -46.35620000     -34.21870000     -70.06870000
C      -44.91800000     -33.75250000     -72.67490000
H      -45.36050000     -32.96860000     -72.03780000
H      -44.53210000     -33.25510000     -73.59060000
C      -43.74920000     -34.38150000     -71.98100000
C      -42.67510000     -34.93250000     -72.60130000
C      -43.55240000     -34.58780000     -70.53230000
H      -42.49540000     -34.89060000     -73.66760000
C      -42.34630000     -35.24490000     -70.20090000
C      -44.28890000     -34.26520000     -69.28520000
C      -43.64970000     -34.64250000     -68.13620000
S      -41.35740000     -35.58530000     -71.63140000
S      -42.04580000     -35.29890000     -68.47330000
H      -44.03830000     -34.68580000     -67.12960000
