40
Properties=species:S:1:pos:R:3 #=T CELL(abcABC):=T 1.889726e+02=T 90.00000=T Traj:=T positionsangstrom=T Step:=T 0=T Bead:=T pbc="F F F"
C      -43.29560000     -34.67170000     -72.25790000
C      -43.21210000     -33.27320000     -72.58980000
C      -44.28180000     -32.68200000     -73.39570000
C      -45.43290000     -33.44730000     -73.77060000
C      -45.40990000     -34.77840000     -73.41550000
C      -44.38400000     -35.38320000     -72.73260000
H      -42.52080000     -35.23380000     -71.72020000
H      -44.22410000     -31.70800000     -73.76610000
H      -46.32950000     -35.35790000     -73.71750000
H      -44.47470000     -36.47690000     -72.50990000
C      -46.61440000     -32.75930000     -74.44540000
H      -46.80960000     -33.37450000     -75.32920000
H      -46.32870000     -31.77220000     -74.73780000
C      -42.05760000     -32.51430000     -72.08990000
H      -41.31500000     -33.08640000     -71.68250000
H      -41.52220000     -31.99440000     -72.88960000
S      -48.17470000     -32.84640000     -73.47070000
S      -42.47050000     -31.11570000     -70.91330000
C      -47.83510000     -31.71920000     -71.98350000
H      -46.81630000     -31.49140000     -71.96640000
H      -48.31590000     -30.73430000     -72.06550000
C      -44.26210000     -30.65840000     -70.96670000
H      -44.80270000     -30.94890000     -71.94750000
H      -44.19930000     -29.55810000     -71.06330000
C      -45.13130000     -31.16310000     -69.80390000
H      -44.73710000     -30.74860000     -68.86750000
H      -46.09460000     -30.72790000     -69.93210000
C      -48.07910000     -32.41540000     -70.62800000
H      -49.12190000     -32.69590000     -70.39930000
H      -47.75620000     -31.79450000     -69.77680000
C      -47.31250000     -33.67540000     -70.47160000
C      -47.79280000     -34.97070000     -70.63390000
C      -45.94760000     -33.63160000     -70.06610000
H      -48.82640000     -35.18640000     -70.86070000
C      -45.42370000     -34.93040000     -69.68590000
C      -45.05380000     -32.61460000     -69.61790000
C      -43.95870000     -33.03370000     -68.86200000
S      -46.62040000     -36.19780000     -70.14550000
S      -43.91990000     -34.81140000     -68.89670000
H      -43.22940000     -32.38520000     -68.36710000
