40
Properties=species:S:1:pos:R:3 #=T CELL(abcABC):=T 1.889726e+02=T 90.00000=T Traj:=T positionsangstrom=T Step:=T 0=T Bead:=T pbc="F F F"
C      -46.95870000     -29.80590000     -72.12020000
C      -47.29780000     -30.74750000     -71.16200000
C      -47.87010000     -31.97130000     -71.62600000
C      -47.98630000     -32.21150000     -72.99540000
C      -47.57590000     -31.26500000     -73.92480000
C      -47.12600000     -30.03750000     -73.45420000
H      -46.64650000     -28.82280000     -71.77410000
H      -48.28340000     -32.67120000     -70.93270000
H      -47.46260000     -31.54300000     -74.97860000
H      -46.96780000     -29.17600000     -74.16780000
C      -48.51330000     -33.46400000     -73.54100000
H      -49.20750000     -33.29830000     -74.29920000
H      -48.84860000     -34.09520000     -72.71370000
C      -47.34460000     -30.22430000     -69.76010000
H      -46.60880000     -29.46490000     -69.54240000
H      -48.29920000     -29.72640000     -69.54330000
S      -47.20620000     -34.54590000     -74.39740000
S      -47.13750000     -31.60810000     -68.52480000
C      -45.74500000     -34.95470000     -73.36890000
H      -45.99060000     -35.69610000     -72.55650000
H      -45.12690000     -35.57910000     -74.01680000
C      -45.56050000     -32.39480000     -68.96570000
H      -44.89270000     -32.32610000     -68.12640000
H      -45.04770000     -31.95060000     -69.88600000
C      -45.75780000     -33.87620000     -69.35390000
H      -46.36600000     -34.39750000     -68.64740000
H      -46.26570000     -33.89230000     -70.25800000
C      -44.99890000     -33.71820000     -72.77290000
H      -45.53860000     -33.10290000     -72.03800000
H      -44.78710000     -33.00740000     -73.66010000
C      -43.73320000     -34.11800000     -72.08610000
C      -42.64110000     -34.46300000     -72.81330000
C      -43.55350000     -34.54490000     -70.72400000
H      -42.51780000     -34.21900000     -73.90480000
C      -42.30800000     -35.10120000     -70.47830000
C      -44.38930000     -34.50640000     -69.52520000
C      -43.71680000     -35.04210000     -68.42680000
S      -41.37510000     -35.22300000     -71.92060000
S      -42.13310000     -35.71010000     -68.80010000
H      -44.15360000     -35.01080000     -67.44820000
