40
Properties=species:S:1:pos:R:3 #=T CELL(abcABC):=T 1.889726e+02=T 90.00000=T Traj:=T positionsangstrom=T Step:=T 0=T Bead:=T pbc="F F F"
C      -47.09340000     -29.67900000     -72.25820000
C      -47.28460000     -30.63220000     -71.20610000
C      -47.94200000     -31.79360000     -71.50790000
C      -48.22510000     -32.22040000     -72.84800000
C      -48.06840000     -31.26350000     -73.86920000
C      -47.59410000     -29.99850000     -73.54920000
H      -46.67450000     -28.72730000     -72.06740000
H      -48.22680000     -32.49420000     -70.67110000
H      -48.41850000     -31.41200000     -74.89280000
H      -47.48460000     -29.31310000     -74.36880000
C      -48.57020000     -33.64820000     -73.00770000
H      -49.59790000     -33.89550000     -73.38430000
H      -48.60600000     -34.07580000     -72.01260000
C      -47.09910000     -30.22150000     -69.76620000
H      -46.18650000     -29.54270000     -69.66320000
H      -47.90990000     -29.68420000     -69.33180000
S      -47.44550000     -34.75760000     -74.00410000
S      -47.03270000     -31.65160000     -68.58220000
C      -45.95310000     -35.02040000     -72.99450000
H      -46.35580000     -35.23510000     -72.00250000
H      -45.47510000     -35.82990000     -73.48730000
C      -45.37530000     -32.45660000     -68.92490000
H      -44.63370000     -32.29400000     -68.12080000
H      -44.97210000     -31.86830000     -69.79060000
C      -45.64490000     -33.90600000     -69.28520000
H      -46.21560000     -34.42110000     -68.55920000
H      -46.22790000     -33.88360000     -70.19560000
C      -45.02360000     -33.74460000     -72.86740000
H      -45.53330000     -32.96070000     -72.22890000
H      -45.02830000     -33.38620000     -73.90660000
C      -43.69010000     -34.12240000     -72.28960000
C      -42.53570000     -34.37310000     -73.01060000
C      -43.45840000     -34.47120000     -70.87010000
H      -42.44750000     -34.16060000     -74.05980000
C      -42.17830000     -35.05350000     -70.66160000
C      -44.28800000     -34.49340000     -69.62860000
C      -43.54800000     -35.03420000     -68.56410000
S      -41.22840000     -35.14660000     -72.11270000
S      -41.93040000     -35.63730000     -69.00830000
H      -43.95240000     -35.16090000     -67.57830000
