40
Properties=species:S:1:pos:R:3 #=T CELL(abcABC):=T 1.889726e+02=T 90.00000=T Traj:=T positionsangstrom=T Step:=T 0=T Bead:=T pbc="F F F"
C      -43.37320000     -34.14470000     -71.95420000
C      -43.47200000     -32.92260000     -72.66420000
C      -44.48990000     -32.70640000     -73.67930000
C      -45.39830000     -33.73080000     -73.81020000
C      -45.16840000     -34.99420000     -73.28370000
C      -44.16640000     -35.19480000     -72.38020000
H      -42.60130000     -34.24910000     -71.17450000
H      -44.76310000     -31.79490000     -74.18730000
H      -45.77780000     -35.82070000     -73.63470000
H      -44.14680000     -36.20290000     -71.83340000
C      -46.60340000     -33.49120000     -74.62200000
H      -46.67650000     -34.12530000     -75.49320000
H      -46.61970000     -32.46750000     -75.00850000
C      -42.36200000     -31.92280000     -72.45360000
H      -41.65820000     -32.42300000     -71.70590000
H      -41.80040000     -31.55530000     -73.31630000
S      -48.16410000     -33.73240000     -73.64520000
S      -43.02880000     -30.28480000     -71.73240000
C      -47.87500000     -32.33220000     -72.45270000
H      -47.03210000     -31.75510000     -72.83390000
H      -48.72430000     -31.69950000     -72.65010000
C      -44.78230000     -30.56060000     -71.21850000
H      -45.34050000     -31.26640000     -71.92250000
H      -45.29180000     -29.65630000     -71.40910000
C      -44.99170000     -30.99510000     -69.71720000
H      -44.23820000     -30.47040000     -69.07490000
H      -45.96180000     -30.69830000     -69.33960000
C      -47.90930000     -32.61990000     -70.95370000
H      -48.92610000     -32.82170000     -70.71250000
H      -47.79850000     -31.74000000     -70.31470000
C      -47.04140000     -33.78400000     -70.41660000
C      -47.45080000     -35.07420000     -70.45700000
C      -45.87090000     -33.60700000     -69.59920000
H      -48.30070000     -35.47980000     -70.99340000
C      -45.34460000     -34.81780000     -69.18710000
C      -44.88240000     -32.49640000     -69.44660000
C      -43.72120000     -32.97460000     -68.86770000
S      -46.30370000     -36.18890000     -69.73050000
S      -43.87100000     -34.70600000     -68.33420000
H      -42.90600000     -32.36810000     -68.49090000
