40
Properties=species:S:1:pos:R:3 #=T CELL(abcABC):=T 1.889726e+02=T 90.00000=T Traj:=T positionsangstrom=T Step:=T 0=T Bead:=T pbc="F F F"
C      -42.75960000     -34.04150000     -71.59880000
C      -43.23530000     -32.89880000     -72.24470000
C      -44.31590000     -33.13660000     -73.17630000
C      -44.87410000     -34.37180000     -73.52440000
C      -44.36540000     -35.50460000     -72.79680000
C      -43.28870000     -35.35060000     -71.87710000
H      -41.96730000     -33.90180000     -70.82800000
H      -44.70780000     -32.23400000     -73.55550000
H      -44.86820000     -36.42800000     -73.02310000
H      -42.99800000     -36.23440000     -71.36720000
C      -46.08990000     -34.27740000     -74.40910000
H      -45.99380000     -34.92190000     -75.29160000
H      -46.18000000     -33.24460000     -74.80270000
C      -42.74550000     -31.49170000     -72.08080000
H      -42.32720000     -31.38280000     -71.09750000
H      -41.86740000     -31.29750000     -72.64380000
S      -47.69490000     -34.59680000     -73.56520000
S      -43.83610000     -30.08810000     -72.37400000
C      -47.85500000     -32.89490000     -72.77990000
H      -46.99050000     -32.20120000     -73.05470000
H      -48.76720000     -32.51220000     -73.19120000
C      -45.48330000     -30.61090000     -71.68330000
H      -45.73950000     -31.57370000     -72.12620000
H      -46.17170000     -29.84760000     -72.04300000
C      -45.53610000     -30.76530000     -70.10250000
H      -44.94270000     -30.01890000     -69.55020000
H      -46.50630000     -30.53730000     -69.77330000
C      -48.11950000     -32.74650000     -71.26450000
H      -49.13540000     -33.01650000     -70.90520000
H      -48.09850000     -31.67270000     -71.08490000
C      -47.24960000     -33.63310000     -70.45040000
C      -47.56410000     -34.93820000     -70.25780000
C      -45.93150000     -33.33600000     -69.82230000
H      -48.40530000     -35.40540000     -70.80600000
C      -45.37420000     -34.45880000     -69.25440000
C      -45.16450000     -32.15380000     -69.65870000
C      -43.98080000     -32.38870000     -69.00550000
S      -46.35470000     -35.86880000     -69.39440000
S      -43.83420000     -34.07640000     -68.55690000
H      -43.24300000     -31.62910000     -68.71650000
