40
Properties=species:S:1:pos:R:3 #=T CELL(abcABC):=T 1.889726e+02=T 90.00000=T Traj:=T positionsangstrom=T Step:=T 0=T Bead:=T pbc="F F F"
C      -42.87830000     -33.88950000     -71.57300000
C      -43.37750000     -32.87120000     -72.41280000
C      -44.35670000     -33.14160000     -73.40510000
C      -45.02050000     -34.34290000     -73.42890000
C      -44.51340000     -35.45170000     -72.64900000
C      -43.49610000     -35.22280000     -71.76760000
H      -42.01120000     -33.70250000     -70.95230000
H      -44.62670000     -32.45350000     -74.13960000
H      -44.87310000     -36.45750000     -72.88200000
H      -43.03130000     -36.11320000     -71.32630000
C      -46.12130000     -34.60280000     -74.45940000
H      -45.98350000     -35.49250000     -75.18080000
H      -46.19250000     -33.57980000     -74.92070000
C      -42.64490000     -31.54080000     -72.40230000
H      -41.85680000     -31.46880000     -71.58130000
H      -42.04720000     -31.42780000     -73.37300000
S      -47.77570000     -34.80550000     -73.59550000
S      -43.76630000     -29.94660000     -72.31480000
C      -47.69430000     -33.19300000     -72.78460000
H      -46.67820000     -32.80760000     -73.03260000
H      -48.37170000     -32.61720000     -73.37300000
C      -45.50210000     -30.44430000     -71.95230000
H      -45.92900000     -31.23740000     -72.58460000
H      -46.10800000     -29.53600000     -72.13100000
C      -45.77490000     -30.77360000     -70.44580000
H      -45.41210000     -29.87780000     -69.78390000
H      -46.87600000     -30.82120000     -70.35470000
C      -48.08000000     -33.07910000     -71.34290000
H      -49.05660000     -33.56200000     -71.12850000
H      -48.20820000     -32.01460000     -71.04900000
C      -47.11720000     -33.84710000     -70.44240000
C      -47.26900000     -35.21940000     -70.21370000
C      -45.94710000     -33.33980000     -69.80560000
H      -48.08180000     -35.84300000     -70.47020000
C      -45.30000000     -34.34210000     -69.03310000
C      -45.27950000     -31.99980000     -69.83850000
C      -44.18170000     -32.13800000     -69.04640000
S      -46.09290000     -35.89960000     -69.12690000
S      -43.85920000     -33.74020000     -68.36670000
H      -43.35090000     -31.37950000     -68.96910000
