40
Properties=species:S:1:pos:R:3 #=T CELL(abcABC):=T 1.889726e+02=T 90.00000=T Traj:=T positionsangstrom=T Step:=T 0=T Bead:=T pbc="F F F"
C      -47.46970000     -34.29470000     -74.25710000
C      -47.88030000     -33.19490000     -73.55410000
C      -48.53440000     -33.40450000     -72.28070000
C      -48.47810000     -34.67650000     -71.66750000
C      -48.04150000     -35.80020000     -72.43670000
C      -47.46720000     -35.65680000     -73.72990000
H      -47.00320000     -34.16860000     -75.19460000
H      -48.96180000     -32.54580000     -71.80130000
H      -47.98170000     -36.77330000     -71.92480000
H      -47.06350000     -36.44180000     -74.30340000
C      -49.03430000     -34.74010000     -70.25890000
H      -48.95320000     -35.80990000     -69.89230000
H      -50.13660000     -34.49530000     -70.25720000
C      -47.90260000     -31.79480000     -74.08390000
H      -48.22900000     -31.78170000     -75.17150000
H      -48.42320000     -31.07280000     -73.51740000
S      -48.30090000     -33.71960000     -68.89480000
S      -46.21710000     -30.98960000     -74.13080000
C      -46.51900000     -34.20200000     -68.70660000
H      -46.24430000     -34.00240000     -67.67710000
H      -46.40320000     -35.23950000     -68.80290000
C      -45.33360000     -31.38700000     -72.53370000
H      -46.02030000     -31.63180000     -71.82540000
H      -44.72190000     -30.59950000     -72.23030000
C      -44.51230000     -32.77300000     -72.73350000
H      -45.13110000     -33.69400000     -72.62040000
H      -44.08180000     -32.75330000     -73.78310000
C      -45.69430000     -33.43540000     -69.75820000
H      -45.92630000     -32.38730000     -69.76140000
H      -45.92710000     -33.92700000     -70.73670000
C      -44.13970000     -33.56390000     -69.53120000
C      -43.58800000     -34.00630000     -68.32330000
C      -43.15670000     -33.27020000     -70.57680000
H      -44.01240000     -34.47400000     -67.42420000
C      -41.89300000     -33.40210000     -70.11960000
C      -43.23730000     -32.90850000     -71.93110000
C      -42.00190000     -32.83480000     -72.57030000
S      -41.85280000     -33.89320000     -68.45170000
S      -40.68020000     -33.14160000     -71.37120000
H      -41.73680000     -32.45450000     -73.54940000
