40
Properties=species:S:1:pos:R:3 #=T CELL(abcABC):=T 1.889726e+02=T 90.00000=T Traj:=T positionsangstrom=T Step:=T 0=T Bead:=T pbc="F F F"
C      -45.34040000     -37.62850000     -70.99050000
C      -46.43810000     -36.85930000     -70.70740000
C      -47.09460000     -36.20360000     -71.74170000
C      -46.45930000     -36.23830000     -73.04180000
C      -45.27820000     -36.91800000     -73.24530000
C      -44.74150000     -37.63830000     -72.22600000
H      -44.81460000     -38.18210000     -70.16900000
H      -47.98070000     -35.54630000     -71.65790000
H      -44.75930000     -36.88270000     -74.24010000
H      -43.89870000     -38.34210000     -72.35920000
C      -46.99800000     -35.33780000     -74.13620000
H      -48.06640000     -35.30480000     -74.00060000
H      -46.73550000     -35.69770000     -75.17940000
C      -46.88110000     -36.69200000     -69.33070000
H      -47.91300000     -36.36210000     -69.31590000
H      -46.84230000     -37.56420000     -68.64980000
S      -46.36570000     -33.53110000     -73.96970000
S      -45.91080000     -35.58390000     -68.29840000
C      -47.60100000     -32.60650000     -72.94450000
H      -47.99070000     -31.66420000     -73.46510000
H      -48.45390000     -33.23020000     -72.72040000
C      -45.02130000     -34.43430000     -69.48430000
H      -45.40580000     -34.39300000     -70.49520000
H      -43.95380000     -34.69300000     -69.64100000
C      -45.09240000     -32.95610000     -68.92150000
H      -46.12030000     -32.65780000     -68.84270000
H      -44.67570000     -33.02670000     -67.87610000
C      -46.89390000     -32.18440000     -71.61610000
H      -46.56490000     -33.07220000     -70.97430000
H      -47.64720000     -31.70110000     -71.04750000
C      -45.74000000     -31.27290000     -71.84670000
C      -45.49500000     -30.51950000     -72.95490000
C      -44.60650000     -31.21770000     -70.86500000
H      -46.11670000     -30.45650000     -73.89030000
C      -43.61230000     -30.32600000     -71.27720000
C      -44.33230000     -31.84520000     -69.57620000
C      -43.19310000     -31.30560000     -68.99770000
S      -44.00890000     -29.53120000     -72.79290000
S      -42.48510000     -30.03500000     -69.96640000
H      -42.74890000     -31.42940000     -67.99190000
