40
Properties=species:S:1:pos:R:3 #=T CELL(abcABC):=T 1.889726e+02=T 90.00000=T Traj:=T positionsangstrom=T Step:=T 0=T Bead:=T pbc="F F F"
C      -42.93770000     -34.05110000     -71.98930000
C      -43.25490000     -32.85310000     -72.65310000
C      -44.38790000     -32.83730000     -73.50210000
C      -45.12370000     -34.06830000     -73.70790000
C      -44.71440000     -35.28380000     -73.13720000
C      -43.66230000     -35.24330000     -72.19160000
H      -42.06010000     -33.79880000     -71.29560000
H      -44.61380000     -31.95260000     -74.11160000
H      -45.38980000     -36.12460000     -73.35100000
H      -43.22420000     -36.10370000     -71.75860000
C      -46.34400000     -34.13830000     -74.55800000
H      -46.47340000     -35.13240000     -75.04490000
H      -46.31020000     -33.44110000     -75.37890000
C      -42.56040000     -31.55190000     -72.39960000
H      -41.61140000     -31.74050000     -71.86860000
H      -42.20040000     -31.33360000     -73.46800000
S      -47.98180000     -33.88460000     -73.69700000
S      -43.58040000     -30.11460000     -71.87540000
C      -47.76410000     -32.41600000     -72.64180000
H      -46.79670000     -32.02840000     -72.92180000
H      -48.54060000     -31.65500000     -72.89950000
C      -45.18980000     -30.72640000     -71.33610000
H      -45.35830000     -31.59270000     -71.91400000
H      -46.04540000     -30.05400000     -71.56880000
C      -45.24930000     -30.96820000     -69.83480000
H      -44.56670000     -30.24870000     -69.43490000
H      -46.32750000     -30.71150000     -69.57270000
C      -47.88050000     -32.65600000     -71.12700000
H      -48.89130000     -32.96430000     -70.83890000
H      -47.58310000     -31.69220000     -70.71230000
C      -47.05120000     -33.71220000     -70.46600000
C      -47.59480000     -34.97530000     -70.38800000
C      -45.79330000     -33.53480000     -69.76570000
H      -48.55790000     -35.18150000     -70.85890000
C      -45.37160000     -34.72440000     -69.20300000
C      -44.96470000     -32.44720000     -69.42850000
C      -43.90690000     -32.82310000     -68.60160000
S      -46.40760000     -36.07190000     -69.57610000
S      -43.85790000     -34.56050000     -68.34210000
H      -43.09860000     -32.12130000     -68.33470000
