40
Properties=species:S:1:pos:R:3 #=T CELL(abcABC):=T 1.889726e+02=T 90.00000=T Traj:=T positionsangstrom=T Step:=T 0=T Bead:=T pbc="F F F"
C      -43.08900000     -34.15930000     -72.07240000
C      -43.27840000     -32.93640000     -72.74470000
C      -44.31770000     -32.84940000     -73.71370000
C      -45.23970000     -33.94920000     -73.77210000
C      -45.12140000     -35.11470000     -73.00350000
C      -43.98100000     -35.24630000     -72.17440000
H      -42.13020000     -34.21100000     -71.35100000
H      -44.46930000     -31.94830000     -74.29270000
H      -45.93020000     -35.78570000     -73.19560000
H      -43.81530000     -36.13750000     -71.60150000
C      -46.44170000     -33.75370000     -74.66410000
H      -46.48240000     -34.62540000     -75.30470000
H      -46.37030000     -32.79230000     -75.23390000
C      -42.42170000     -31.71860000     -72.43100000
H      -41.68940000     -31.87360000     -71.66900000
H      -41.93490000     -31.33810000     -73.30350000
S      -48.06020000     -33.85300000     -73.67490000
S      -43.36030000     -30.14060000     -71.90620000
C      -47.85390000     -32.39330000     -72.57470000
H      -46.85490000     -31.91090000     -72.81580000
H      -48.62950000     -31.66230000     -72.71980000
C      -45.00370000     -30.71840000     -71.20220000
H      -45.26250000     -31.63530000     -71.76390000
H      -45.60970000     -29.84180000     -71.48060000
C      -45.13720000     -30.95000000     -69.68350000
H      -44.44350000     -30.30130000     -69.13360000
H      -46.11760000     -30.63740000     -69.36610000
C      -47.96670000     -32.73350000     -71.05580000
H      -49.00260000     -33.12640000     -70.99170000
H      -47.91540000     -31.77880000     -70.50510000
C      -47.05390000     -33.74150000     -70.45170000
C      -47.42850000     -35.08010000     -70.46760000
C      -45.81370000     -33.50750000     -69.74940000
H      -48.42150000     -35.39390000     -70.79900000
C      -45.32090000     -34.75300000     -69.25520000
C      -45.00010000     -32.39560000     -69.29850000
C      -43.93330000     -32.88290000     -68.53030000
S      -46.32600000     -36.08320000     -69.60910000
S      -43.81980000     -34.62180000     -68.38580000
H      -43.13080000     -32.26410000     -68.12100000
