40
Properties=species:S:1:pos:R:3 #=T CELL(abcABC):=T 1.889726e+02=T 90.00000=T Traj:=T positionsangstrom=T Step:=T 0=T Bead:=T pbc="F F F"
C      -43.34250000     -34.33800000     -72.22150000
C      -43.44330000     -32.99260000     -72.72800000
C      -44.56160000     -32.69210000     -73.60380000
C      -45.53190000     -33.69290000     -73.82060000
C      -45.41340000     -34.95580000     -73.22960000
C      -44.28160000     -35.31700000     -72.46650000
H      -42.57530000     -34.69650000     -71.60250000
H      -44.60370000     -31.77620000     -74.11500000
H      -46.21710000     -35.69070000     -73.39650000
H      -44.26660000     -36.42680000     -72.20700000
C      -46.71500000     -33.36720000     -74.65860000
H      -46.85000000     -34.11380000     -75.50020000
H      -46.71310000     -32.39630000     -75.15970000
C      -42.40410000     -31.99610000     -72.28680000
H      -41.78930000     -32.55400000     -71.58570000
H      -41.88920000     -31.63580000     -73.18350000
S      -48.16180000     -33.45300000     -73.64610000
S      -42.85800000     -30.40360000     -71.39410000
C      -47.82980000     -32.08420000     -72.41140000
H      -46.82190000     -31.74700000     -72.59670000
H      -48.53340000     -31.17020000     -72.46900000
C      -44.69580000     -30.46050000     -71.11050000
H      -45.06890000     -31.12050000     -71.89370000
H      -45.06850000     -29.46420000     -71.16890000
C      -45.02180000     -31.11380000     -69.66160000
H      -44.41950000     -30.63720000     -68.85770000
H      -46.07200000     -30.73920000     -69.57300000
C      -47.91520000     -32.66200000     -70.98360000
H      -48.92310000     -33.17040000     -70.91010000
H      -47.79460000     -31.82960000     -70.29770000
C      -46.96730000     -33.74730000     -70.51050000
C      -47.45680000     -34.98700000     -70.51650000
C      -45.69530000     -33.66990000     -69.89430000
H      -48.41530000     -35.34370000     -70.98690000
C      -45.20630000     -34.87900000     -69.51240000
C      -44.82710000     -32.56200000     -69.50890000
C      -43.78060000     -33.07520000     -68.76560000
S      -46.48830000     -36.14560000     -69.60010000
S      -43.77670000     -34.81540000     -68.53570000
H      -42.95910000     -32.42780000     -68.40560000
