40
Properties=species:S:1:pos:R:3 #=T CELL(abcABC):=T 1.889726e+02=T 90.00000=T Traj:=T positionsangstrom=T Step:=T 0=T Bead:=T pbc="F F F"
C      -48.38670000     -30.33720000     -70.19750000
C      -48.02430000     -31.57430000     -69.61400000
C      -48.21350000     -32.75110000     -70.33360000
C      -48.83530000     -32.66230000     -71.59920000
C      -49.22680000     -31.39780000     -72.12030000
C      -48.85680000     -30.22770000     -71.48370000
H      -48.14400000     -29.40570000     -69.60130000
H      -47.92030000     -33.77980000     -70.01680000
H      -49.84820000     -31.33560000     -73.06710000
H      -49.13600000     -29.24780000     -71.81450000
C      -49.13150000     -33.93750000     -72.28900000
H      -50.08080000     -33.99830000     -72.78130000
H      -48.99560000     -34.79750000     -71.59970000
C      -47.41700000     -31.61250000     -68.24880000
H      -47.88780000     -30.98830000     -67.51400000
H      -47.53500000     -32.61700000     -67.76690000
S      -47.88550000     -34.09060000     -73.64450000
S      -45.57200000     -31.15300000     -68.02390000
C      -46.38270000     -34.38510000     -72.80090000
H      -46.56440000     -34.00360000     -71.76920000
H      -46.12970000     -35.50290000     -72.72480000
C      -44.66780000     -32.61770000     -68.71960000
H      -45.26550000     -33.54670000     -68.51140000
H      -43.80350000     -32.76210000     -68.08310000
C      -44.30740000     -32.50720000     -70.24880000
H      -45.15320000     -32.50280000     -70.91250000
H      -43.91830000     -31.52710000     -70.39480000
C      -45.16460000     -33.72690000     -73.51230000
H      -45.15920000     -32.65880000     -73.41450000
H      -45.30680000     -33.86580000     -74.60430000
C      -43.94520000     -34.43060000     -73.10880000
C      -43.36400000     -35.29800000     -74.02610000
C      -43.14240000     -34.29590000     -71.89390000
H      -43.80640000     -35.48780000     -75.04780000
C      -42.12170000     -35.20340000     -71.89660000
C      -43.18600000     -33.48360000     -70.70980000
C      -42.07930000     -33.73160000     -69.88370000
S      -42.02170000     -36.19000000     -73.32990000
S      -41.00430000     -34.90750000     -70.60330000
H      -41.65660000     -33.01970000     -69.13120000
