40
Properties=species:S:1:pos:R:3 #=T CELL(abcABC):=T 1.889726e+02=T 90.00000=T Traj:=T positionsangstrom=T Step:=T 0=T Bead:=T pbc="F F F"
C      -42.79650000     -33.51340000     -72.53940000
C      -43.74350000     -32.78620000     -73.22180000
C      -44.79890000     -33.50020000     -73.82280000
C      -44.94700000     -34.86810000     -73.73680000
C      -44.08640000     -35.54840000     -72.85140000
C      -42.99680000     -34.90460000     -72.28340000
H      -41.82250000     -33.07690000     -72.19580000
H      -45.56080000     -32.90790000     -74.47150000
H      -44.26640000     -36.57990000     -72.60470000
H      -42.19990000     -35.46990000     -71.81590000
C      -46.17890000     -35.46410000     -74.42100000
H      -46.20260000     -36.54000000     -74.58410000
H      -46.34020000     -35.05340000     -75.51640000
C      -43.63440000     -31.32610000     -73.64440000
H      -42.61210000     -31.03040000     -73.90580000
H      -44.44100000     -31.10880000     -74.40880000
S      -47.72680000     -35.28390000     -73.37630000
S      -44.06550000     -30.16730000     -72.16120000
C      -47.81800000     -33.56410000     -72.71770000
H      -46.97750000     -33.06450000     -73.00530000
H      -48.71910000     -33.13980000     -73.10710000
C      -45.84100000     -30.58900000     -71.83590000
H      -45.99410000     -31.61750000     -72.22500000
H      -46.53760000     -29.91010000     -72.32940000
C      -46.19420000     -30.62220000     -70.31550000
H      -46.07050000     -29.68440000     -69.85080000
H      -47.26950000     -30.84120000     -70.18550000
C      -47.97630000     -33.59560000     -71.25250000
H      -48.85150000     -34.14370000     -71.01940000
H      -48.11300000     -32.56870000     -70.89800000
C      -46.72690000     -34.04320000     -70.42830000
C      -46.44700000     -35.36310000     -70.21970000
C      -45.93910000     -33.15780000     -69.57540000
H      -47.03390000     -36.22980000     -70.36150000
C      -45.12510000     -33.93480000     -68.72420000
C      -45.48790000     -31.76180000     -69.57350000
C      -44.48870000     -31.54200000     -68.65810000
S      -45.26900000     -35.64110000     -68.94890000
S      -44.04800000     -32.95700000     -67.74460000
H      -43.90950000     -30.63630000     -68.47560000
