40
Properties=species:S:1:pos:R:3 #=T CELL(abcABC):=T 1.889726e+02=T 90.00000=T Traj:=T positionsangstrom=T Step:=T 0=T Bead:=T pbc="F F F"
C      -42.84640000     -33.61120000     -72.38590000
C      -43.65170000     -32.86580000     -73.21690000
C      -44.67280000     -33.47650000     -73.94860000
C      -44.92580000     -34.83880000     -73.93350000
C      -44.01840000     -35.58770000     -73.17580000
C      -43.07630000     -35.01190000     -72.33240000
H      -42.12100000     -33.23410000     -71.71390000
H      -45.34020000     -32.86220000     -74.66100000
H      -44.03110000     -36.68030000     -73.16450000
H      -42.56190000     -35.62780000     -71.63520000
C      -46.14280000     -35.53890000     -74.51250000
H      -45.92010000     -36.54090000     -74.66120000
H      -46.41450000     -35.02800000     -75.40450000
C      -43.39110000     -31.40530000     -73.38450000
H      -42.40000000     -31.10690000     -73.46740000
H      -43.90810000     -31.10840000     -74.30980000
S      -47.77220000     -35.46380000     -73.36530000
S      -44.01090000     -30.33350000     -72.01650000
C      -47.83390000     -33.64870000     -72.81930000
H      -46.94340000     -33.10910000     -73.29010000
H      -48.68180000     -33.10350000     -73.28900000
C      -45.79490000     -30.81230000     -71.74240000
H      -45.95320000     -31.80390000     -72.18860000
H      -46.27270000     -30.05150000     -72.36550000
C      -46.18370000     -30.56300000     -70.26990000
H      -45.79860000     -29.62570000     -70.04840000
H      -47.31580000     -30.58900000     -70.19940000
C      -47.95050000     -33.33400000     -71.30080000
H      -48.91520000     -33.73200000     -70.93890000
H      -48.02590000     -32.25610000     -71.31130000
C      -46.84160000     -33.84530000     -70.41360000
C      -46.64340000     -35.19370000     -70.20370000
C      -45.87350000     -33.02170000     -69.63880000
H      -47.23480000     -36.00620000     -70.67820000
C      -45.02110000     -33.82110000     -68.88290000
C      -45.65940000     -31.59860000     -69.35480000
C      -44.77390000     -31.42500000     -68.31380000
S      -45.33650000     -35.50710000     -69.04450000
S      -43.98210000     -32.94890000     -67.79200000
H      -44.43960000     -30.42510000     -67.94150000
