40
Properties=species:S:1:pos:R:3 #=T CELL(abcABC):=T 1.889726e+02=T 90.00000=T Traj:=T positionsangstrom=T Step:=T 0=T Bead:=T pbc="F F F"
C      -42.99320000     -33.78770000     -71.67000000
C      -43.33400000     -32.89660000     -72.76190000
C      -44.39950000     -33.26330000     -73.62720000
C      -44.92390000     -34.58270000     -73.52750000
C      -44.57870000     -35.46140000     -72.51160000
C      -43.57490000     -35.05980000     -71.58560000
H      -42.37210000     -33.36920000     -70.86860000
H      -44.75340000     -32.68320000     -74.45490000
H      -45.07420000     -36.39820000     -72.33100000
H      -43.33270000     -35.71670000     -70.79480000
C      -46.09790000     -34.89780000     -74.48310000
H      -46.14570000     -35.88720000     -74.86580000
H      -46.12680000     -34.23440000     -75.33450000
C      -42.71610000     -31.54260000     -72.59820000
H      -41.88560000     -31.62340000     -71.84640000
H      -42.19700000     -31.29650000     -73.48310000
S      -47.74060000     -34.84710000     -73.55530000
S      -43.65270000     -30.03760000     -72.14040000
C      -48.03240000     -33.16710000     -72.80630000
H      -47.19430000     -32.41670000     -72.98050000
H      -48.96540000     -32.68800000     -73.26210000
C      -45.41720000     -30.55000000     -71.93930000
H      -45.51170000     -31.42760000     -72.53770000
H      -45.99170000     -29.81590000     -72.41860000
C      -45.86240000     -30.74410000     -70.48430000
H      -45.68380000     -29.88000000     -69.86860000
H      -46.95840000     -30.77860000     -70.43110000
C      -48.25900000     -33.31940000     -71.29950000
H      -49.15500000     -33.98940000     -71.29370000
H      -48.54190000     -32.41320000     -70.79920000
C      -47.10880000     -33.94850000     -70.48250000
C      -47.21310000     -35.29260000     -70.15240000
C      -45.93170000     -33.30860000     -69.90890000
H      -47.96680000     -36.05550000     -70.36440000
C      -45.19820000     -34.19350000     -69.12640000
C      -45.35410000     -31.99610000     -69.83130000
C      -44.25700000     -31.89680000     -69.04150000
S      -45.85730000     -35.81480000     -69.10060000
S      -43.89440000     -33.47510000     -68.31610000
H      -43.63200000     -31.04220000     -68.63450000
