40
Properties=species:S:1:pos:R:3 #=T CELL(abcABC):=T 1.889726e+02=T 90.00000=T Traj:=T positionsangstrom=T Step:=T 0=T Bead:=T pbc="F F F"
C      -42.96370000     -33.13980000     -72.41900000
C      -43.72820000     -32.49550000     -73.42880000
C      -44.67490000     -33.28690000     -74.05480000
C      -45.03600000     -34.60230000     -73.73370000
C      -44.35830000     -35.20530000     -72.68670000
C      -43.25770000     -34.49180000     -72.13850000
H      -42.22050000     -32.76120000     -71.76090000
H      -45.29520000     -32.76680000     -74.71310000
H      -44.64300000     -36.15140000     -72.26240000
H      -42.64510000     -34.92120000     -71.35340000
C      -46.11860000     -35.33590000     -74.43900000
H      -45.95050000     -36.43510000     -74.61220000
H      -46.26530000     -34.96890000     -75.45980000
C      -43.72930000     -30.98110000     -73.65860000
H      -42.78420000     -30.57100000     -74.08500000
H      -44.50330000     -30.85460000     -74.38800000
S      -47.70510000     -35.32600000     -73.37770000
S      -44.18670000     -30.19200000     -72.14530000
C      -47.80990000     -33.73130000     -72.48860000
H      -46.93370000     -33.11050000     -72.61290000
H      -48.74520000     -33.30180000     -72.82410000
C      -45.85750000     -30.89530000     -71.98320000
H      -45.81700000     -31.91010000     -72.39070000
H      -46.74340000     -30.34260000     -72.48590000
C      -46.32190000     -30.90760000     -70.53050000
H      -46.25970000     -29.88810000     -70.09490000
H      -47.33920000     -31.20920000     -70.61490000
C      -48.04210000     -33.92770000     -70.93650000
H      -48.77400000     -34.66570000     -70.88010000
H      -48.42280000     -33.07490000     -70.48360000
C      -46.85020000     -34.27940000     -70.14550000
C      -46.55990000     -35.58150000     -69.69940000
C      -45.81680000     -33.32540000     -69.73290000
H      -46.98730000     -36.47350000     -70.15410000
C      -44.86960000     -34.03070000     -68.96450000
C      -45.50270000     -31.89700000     -69.67840000
C      -44.46790000     -31.55690000     -68.85070000
S      -45.18690000     -35.71350000     -68.65240000
S      -43.70680000     -32.96100000     -68.18330000
H      -44.09310000     -30.56480000     -68.73310000
