40
Properties=species:S:1:pos:R:3 #=T CELL(abcABC):=T 1.889726e+02=T 90.00000=T Traj:=T positionsangstrom=T Step:=T 0=T Bead:=T pbc="F F F"
C      -47.22650000     -33.53040000     -74.20510000
C      -48.10330000     -33.11050000     -73.19790000
C      -48.35660000     -33.94440000     -72.10110000
C      -47.89570000     -35.29370000     -72.14070000
C      -47.04940000     -35.69550000     -73.23520000
C      -46.65010000     -34.77670000     -74.22030000
H      -47.00570000     -32.84820000     -75.03310000
H      -48.87060000     -33.53180000     -71.23950000
H      -46.70630000     -36.75900000     -73.31790000
H      -46.12970000     -35.17820000     -75.04540000
C      -48.13920000     -36.26530000     -71.09490000
H      -47.44670000     -37.16380000     -71.24560000
H      -49.18260000     -36.76080000     -71.09030000
C      -48.60170000     -31.70240000     -73.12110000
H      -49.14410000     -31.27760000     -73.95310000
H      -49.37790000     -31.55960000     -72.36290000
S      -47.99120000     -35.54480000     -69.41390000
S      -47.16870000     -30.48880000     -72.99820000
C      -46.21810000     -35.24320000     -69.05120000
H      -46.20950000     -34.82030000     -68.02630000
H      -45.67590000     -36.25240000     -69.11410000
C      -45.88780000     -31.13650000     -71.80920000
H      -46.37290000     -31.70370000     -71.01950000
H      -45.59390000     -30.19350000     -71.34770000
C      -44.75650000     -31.93830000     -72.50920000
H      -45.14460000     -32.94200000     -72.59530000
H      -44.58830000     -31.53310000     -73.52660000
C      -45.48600000     -34.35480000     -70.14350000
H      -46.18000000     -33.52460000     -70.42730000
H      -45.49200000     -34.95480000     -71.00370000
C      -44.08530000     -33.87230000     -69.90360000
C      -43.39590000     -34.45440000     -68.85360000
C      -43.34670000     -32.84980000     -70.61190000
H      -43.66400000     -35.31470000     -68.29080000
C      -42.03470000     -32.87090000     -70.12130000
C      -43.51930000     -31.99340000     -71.70960000
C      -42.34860000     -31.35220000     -72.07510000
S      -41.67780000     -33.97180000     -68.77470000
S      -40.94410000     -32.01150000     -71.23500000
H      -42.15950000     -30.70360000     -72.88600000
