40
Properties=species:S:1:pos:R:3 #=T CELL(abcABC):=T 1.889726e+02=T 90.00000=T Traj:=T positionsangstrom=T Step:=T 0=T Bead:=T pbc="F F F"
C      -47.53260000     -33.18570000     -74.13370000
C      -47.97940000     -32.71320000     -72.89290000
C      -48.34140000     -33.69650000     -71.96490000
C      -48.12510000     -35.07830000     -72.24990000
C      -47.87310000     -35.43240000     -73.60490000
C      -47.50430000     -34.48170000     -74.53710000
H      -47.42290000     -32.37990000     -74.84220000
H      -48.78340000     -33.28990000     -71.07020000
H      -47.73690000     -36.49130000     -73.85700000
H      -47.30450000     -34.66460000     -75.62580000
C      -48.44580000     -36.14480000     -71.19800000
H      -47.98240000     -37.08790000     -71.45190000
H      -49.51580000     -36.34520000     -71.12740000
C      -48.29760000     -31.28620000     -72.54350000
H      -49.03000000     -30.89330000     -73.24070000
H      -48.82970000     -31.12530000     -71.64610000
S      -47.89400000     -35.69580000     -69.45740000
S      -46.94590000     -30.05870000     -72.68900000
C      -46.06570000     -35.74040000     -69.54310000
H      -45.80100000     -35.54870000     -68.56640000
H      -45.63880000     -36.72880000     -69.75270000
C      -45.51990000     -30.81990000     -71.79970000
H      -45.93890000     -31.12490000     -70.89210000
H      -44.89160000     -29.95170000     -71.67110000
C      -44.69770000     -31.97710000     -72.43830000
H      -45.27550000     -32.92930000     -72.43840000
H      -44.63690000     -31.73000000     -73.51070000
C      -45.44370000     -34.69070000     -70.51210000
H      -46.12250000     -33.77560000     -70.59770000
H      -45.37880000     -35.09230000     -71.54750000
C      -44.00140000     -34.37560000     -70.05580000
C      -43.24360000     -35.01260000     -69.15280000
C      -43.24520000     -33.21520000     -70.65000000
H      -43.56900000     -35.80530000     -68.50710000
C      -41.99640000     -33.11550000     -70.14490000
C      -43.45940000     -32.09650000     -71.61960000
C      -42.31420000     -31.47800000     -71.96620000
S      -41.56670000     -34.39500000     -69.03790000
S      -40.97330000     -31.85160000     -70.85320000
H      -42.13410000     -30.70100000     -72.64460000
