40
Properties=species:S:1:pos:R:3 #=T CELL(abcABC):=T 1.889726e+02=T 90.00000=T Traj:=T positionsangstrom=T Step:=T 0=T Bead:=T pbc="F F F"
C      -47.43950000     -33.60520000     -74.30710000
C      -47.98130000     -33.05790000     -73.16230000
C      -48.25430000     -33.94090000     -72.14570000
C      -47.80890000     -35.26850000     -72.11430000
C      -47.19720000     -35.83640000     -73.30280000
C      -46.94380000     -34.88030000     -74.33960000
H      -47.21280000     -32.98630000     -75.18520000
H      -48.85980000     -33.58400000     -71.33780000
H      -46.65620000     -36.80650000     -73.26080000
H      -46.38580000     -35.12800000     -75.28960000
C      -48.12300000     -36.24560000     -70.98810000
H      -47.55530000     -37.14190000     -71.02790000
H      -49.15420000     -36.41240000     -71.10620000
C      -48.44070000     -31.60270000     -73.03130000
H      -49.06670000     -31.32860000     -73.88430000
H      -49.05380000     -31.56900000     -72.10910000
S      -47.93220000     -35.53420000     -69.25720000
S      -47.17580000     -30.28390000     -72.98090000
C      -46.07830000     -35.27890000     -69.16980000
H      -45.87760000     -34.94970000     -68.19540000
H      -45.55730000     -36.21100000     -69.12680000
C      -45.92980000     -30.97080000     -71.81630000
H      -46.44700000     -31.61580000     -71.03380000
H      -45.40680000     -30.16830000     -71.34880000
C      -44.86250000     -31.77200000     -72.56580000
H      -45.36410000     -32.73140000     -72.90180000
H      -44.54780000     -31.20600000     -73.40370000
C      -45.55930000     -34.27200000     -70.16990000
H      -46.03460000     -33.33840000     -69.96660000
H      -45.74360000     -34.45020000     -71.29690000
C      -44.08130000     -34.06830000     -69.89680000
C      -43.28860000     -34.66500000     -68.91160000
C      -43.29630000     -33.01850000     -70.64420000
H      -43.71320000     -35.23740000     -68.04500000
C      -41.98760000     -32.95900000     -70.16810000
C      -43.59330000     -32.09140000     -71.80020000
C      -42.37690000     -31.59980000     -72.27350000
S      -41.62030000     -34.02360000     -68.79450000
S      -41.00540000     -31.93090000     -71.12200000
H      -42.15670000     -31.00360000     -73.12820000
