40
Properties=species:S:1:pos:R:3 #=T CELL(abcABC):=T 1.889726e+02=T 90.00000=T Traj:=T positionsangstrom=T Step:=T 0=T Bead:=T pbc="F F F"
C      -47.58840000     -33.38420000     -74.23070000
C      -48.18800000     -32.97440000     -73.05070000
C      -48.36860000     -33.90140000     -72.02490000
C      -47.88890000     -35.18880000     -72.19840000
C      -47.36090000     -35.60450000     -73.40690000
C      -47.26180000     -34.71130000     -74.49220000
H      -47.45880000     -32.77200000     -75.07070000
H      -48.72990000     -33.71690000     -71.03400000
H      -47.01550000     -36.60800000     -73.51860000
H      -47.02310000     -35.10540000     -75.44040000
C      -48.06570000     -36.28030000     -71.17750000
H      -47.31290000     -37.04730000     -71.26400000
H      -49.02590000     -36.79690000     -71.24030000
C      -48.43610000     -31.53170000     -72.76870000
H      -49.35640000     -31.23330000     -73.25990000
H      -48.78520000     -31.41520000     -71.74120000
S      -47.90460000     -35.67590000     -69.35500000
S      -47.01320000     -30.31940000     -73.07650000
C      -46.06090000     -35.27510000     -68.98490000
H      -46.08020000     -34.72140000     -68.01790000
H      -45.49740000     -36.19130000     -68.80490000
C      -45.74640000     -30.92310000     -71.87610000
H      -46.16180000     -31.14950000     -70.88200000
H      -45.14310000     -29.96850000     -71.64380000
C      -44.88030000     -32.00130000     -72.46970000
H      -45.54170000     -32.85800000     -72.58540000
H      -44.63580000     -31.73160000     -73.51040000
C      -45.46800000     -34.37250000     -69.97330000
H      -45.89410000     -33.30920000     -69.70980000
H      -45.79010000     -34.43890000     -70.99510000
C      -44.00800000     -34.19330000     -69.88670000
C      -43.17590000     -34.82240000     -68.98530000
C      -43.28190000     -33.13530000     -70.62930000
H      -43.36480000     -35.73020000     -68.38030000
C      -41.93740000     -32.97390000     -70.20760000
C      -43.62310000     -32.23290000     -71.71690000
C      -42.46930000     -31.58430000     -72.14690000
S      -41.48720000     -34.05050000     -68.93440000
S      -41.09820000     -31.75130000     -71.05860000
H      -42.55900000     -30.80160000     -72.88310000
