40
Properties=species:S:1:pos:R:3 #=T CELL(abcABC):=T 1.889726e+02=T 90.00000=T Traj:=T positionsangstrom=T Step:=T 0=T Bead:=T pbc="F F F"
C      -45.26020000     -37.47140000     -71.12970000
C      -46.28240000     -36.56340000     -70.78340000
C      -46.87290000     -35.88750000     -71.83970000
C      -46.54270000     -36.05130000     -73.22210000
C      -45.58190000     -37.08880000     -73.48790000
C      -44.99960000     -37.74960000     -72.45570000
H      -44.57410000     -37.83230000     -70.36300000
H      -47.61230000     -35.17100000     -71.56050000
H      -45.28600000     -37.43550000     -74.43200000
H      -44.21830000     -38.44690000     -72.73780000
C      -47.15250000     -35.29500000     -74.33650000
H      -48.27990000     -35.17210000     -74.15460000
H      -46.92070000     -35.74710000     -75.29780000
C      -46.81010000     -36.41820000     -69.37530000
H      -47.69770000     -35.74250000     -69.36280000
H      -47.21780000     -37.31040000     -68.93590000
S      -46.45070000     -33.49690000     -74.37790000
S      -45.74350000     -35.66660000     -68.16300000
C      -47.45500000     -32.53330000     -73.22060000
H      -47.78510000     -31.60610000     -73.72980000
H      -48.35110000     -33.05320000     -73.01340000
C      -44.73780000     -34.24140000     -68.84870000
H      -44.37630000     -34.38520000     -69.86780000
H      -43.79090000     -34.08860000     -68.28910000
C      -45.48900000     -32.91560000     -68.79770000
H      -46.49640000     -33.00700000     -69.28660000
H      -45.78560000     -32.76030000     -67.76810000
C      -46.77520000     -32.25160000     -71.84930000
H      -46.42950000     -33.17490000     -71.48330000
H      -47.60880000     -31.99830000     -71.21440000
C      -45.65530000     -31.30530000     -71.87310000
C      -45.30750000     -30.54730000     -72.95250000
C      -44.74100000     -31.21180000     -70.78170000
H      -45.78080000     -30.46160000     -73.87790000
C      -43.68670000     -30.35090000     -71.01960000
C      -44.62380000     -31.84570000     -69.44810000
C      -43.53150000     -31.30770000     -68.79290000
S      -43.72150000     -29.75410000     -72.64920000
S      -42.56960000     -30.23400000     -69.70110000
H      -43.38070000     -31.52900000     -67.77190000
