40
Properties=species:S:1:pos:R:3 #=T CELL(abcABC):=T 1.889726e+02=T 90.00000=T Traj:=T positionsangstrom=T Step:=T 0=T Bead:=T pbc="F F F"
C      -42.74060000     -32.90070000     -72.77910000
C      -43.84880000     -32.40700000     -73.42280000
C      -44.76240000     -33.33000000     -73.95880000
C      -44.62330000     -34.71550000     -73.86610000
C      -43.48740000     -35.22570000     -73.24970000
C      -42.59950000     -34.31350000     -72.73010000
H      -41.93980000     -32.26770000     -72.39670000
H      -45.74590000     -32.97810000     -74.36590000
H      -43.37100000     -36.34690000     -73.22540000
H      -41.69830000     -34.58490000     -72.20610000
C      -45.70820000     -35.61340000     -74.31970000
H      -45.34010000     -36.47680000     -74.85260000
H      -46.44380000     -35.08790000     -75.05130000
C      -44.23080000     -30.93220000     -73.56250000
H      -43.39120000     -30.22310000     -73.54770000
H      -44.90170000     -30.85400000     -74.40680000
S      -46.64320000     -36.33620000     -72.85020000
S      -45.13210000     -30.33770000     -71.97360000
C      -47.79080000     -34.93300000     -72.44520000
H      -47.34780000     -34.07020000     -72.92690000
H      -48.74820000     -35.11460000     -72.78500000
C      -46.81850000     -31.02980000     -71.97020000
H      -46.72340000     -32.04390000     -72.42710000
H      -47.45670000     -30.37680000     -72.66780000
C      -47.31350000     -31.02320000     -70.51980000
H      -47.34710000     -30.01060000     -70.22410000
H      -48.38850000     -31.34970000     -70.51960000
C      -47.87850000     -34.57110000     -70.92700000
H      -48.35470000     -35.37290000     -70.39080000
H      -48.56480000     -33.67650000     -70.74680000
C      -46.60270000     -34.42700000     -70.11710000
C      -45.88470000     -35.53350000     -69.74210000
C      -46.03730000     -33.20490000     -69.59210000
H      -45.95940000     -36.59990000     -70.08270000
C      -44.88350000     -33.46730000     -68.81560000
C      -46.37710000     -31.82900000     -69.60290000
C      -45.48300000     -31.01180000     -68.89660000
S      -44.33720000     -35.16930000     -68.91930000
S      -44.17030000     -31.94530000     -68.20120000
H      -45.52530000     -29.88890000     -68.96950000
