40
Properties=species:S:1:pos:R:3 #=T CELL(abcABC):=T 1.889726e+02=T 90.00000=T Traj:=T positionsangstrom=T Step:=T 0=T Bead:=T pbc="F F F"
C      -47.65590000     -32.93990000     -74.23330000
C      -48.11660000     -32.57590000     -72.93290000
C      -48.34660000     -33.62410000     -72.08320000
C      -48.18650000     -34.97350000     -72.39460000
C      -47.68500000     -35.27990000     -73.61940000
C      -47.43420000     -34.28600000     -74.59540000
H      -47.38750000     -32.18330000     -74.96390000
H      -48.62670000     -33.50770000     -71.00640000
H      -47.32000000     -36.27280000     -73.75130000
H      -46.95410000     -34.52610000     -75.50040000
C      -48.51070000     -35.97890000     -71.36500000
H      -48.01880000     -36.92620000     -71.64650000
H      -49.58810000     -36.17280000     -71.34870000
C      -48.39240000     -31.09740000     -72.57110000
H      -49.09850000     -30.62850000     -73.25190000
H      -48.82440000     -31.12770000     -71.61140000
S      -47.93900000     -35.72600000     -69.63840000
S      -46.86790000     -30.09800000     -72.60510000
C      -45.99650000     -35.88220000     -69.85590000
H      -45.67810000     -35.98860000     -68.77750000
H      -45.78230000     -36.76180000     -70.32280000
C      -45.48240000     -31.07490000     -71.63180000
H      -45.92030000     -31.74330000     -70.92260000
H      -44.94370000     -30.34460000     -71.12020000
C      -44.55390000     -31.97270000     -72.47830000
H      -45.09250000     -32.83980000     -72.77560000
H      -44.29600000     -31.40960000     -73.35270000
C      -45.41070000     -34.61360000     -70.55630000
H      -46.05850000     -33.78400000     -70.19310000
H      -45.45390000     -34.65960000     -71.69200000
C      -43.99670000     -34.32660000     -70.09060000
C      -43.36560000     -34.96410000     -69.03010000
C      -43.23430000     -33.31320000     -70.67410000
H      -43.65900000     -35.88600000     -68.42860000
C      -41.92630000     -33.25360000     -70.06650000
C      -43.38330000     -32.25230000     -71.59550000
C      -42.25360000     -31.48320000     -71.75670000
S      -41.66710000     -34.44690000     -68.86580000
S      -41.00000000     -31.98210000     -70.72830000
H      -42.14630000     -30.61530000     -72.44900000
