40
Properties=species:S:1:pos:R:3 #=T CELL(abcABC):=T 1.889726e+02=T 90.00000=T Traj:=T positionsangstrom=T Step:=T 0=T Bead:=T pbc="F F F"
C      -42.88310000     -32.92480000     -72.78600000
C      -44.08340000     -32.44570000     -73.37010000
C      -44.93030000     -33.44450000     -73.90860000
C      -44.66750000     -34.83450000     -73.81830000
C      -43.48900000     -35.26930000     -73.23460000
C      -42.57860000     -34.28570000     -72.70950000
H      -42.22380000     -32.21270000     -72.31930000
H      -45.77750000     -33.06520000     -74.52610000
H      -43.23100000     -36.29400000     -73.29940000
H      -41.67010000     -34.56000000     -72.18800000
C      -45.72690000     -35.83410000     -74.28890000
H      -45.36000000     -36.70110000     -74.83120000
H      -46.27260000     -35.26690000     -75.05100000
C      -44.34300000     -30.94640000     -73.49770000
H      -43.43440000     -30.34310000     -73.64600000
H      -44.97360000     -30.83690000     -74.41750000
S      -46.84130000     -36.26280000     -72.88720000
S      -45.22300000     -30.17580000     -72.05640000
C      -47.80780000     -34.71730000     -72.45240000
H      -47.34800000     -33.83370000     -73.01360000
H      -48.88430000     -34.85000000     -72.76790000
C      -46.74810000     -31.07420000     -71.98210000
H      -46.51340000     -32.05980000     -72.33130000
H      -47.52020000     -30.65650000     -72.60400000
C      -47.25090000     -31.07250000     -70.47460000
H      -47.40930000     -30.01480000     -70.27550000
H      -48.16710000     -31.60620000     -70.29230000
C      -47.79550000     -34.45580000     -70.86470000
H      -48.18250000     -35.36160000     -70.42230000
H      -48.56360000     -33.69390000     -70.59870000
C      -46.47570000     -34.33590000     -70.27720000
C      -45.82560000     -35.44870000     -69.86050000
C      -45.79180000     -33.14380000     -69.76390000
H      -46.24550000     -36.43360000     -69.85420000
C      -44.70370000     -33.45680000     -68.95900000
C      -46.16210000     -31.72860000     -69.61300000
C      -45.29370000     -31.11410000     -68.68270000
S      -44.41300000     -35.19850000     -68.85240000
S      -44.00410000     -32.11420000     -68.16210000
H      -45.27280000     -29.95000000     -68.60470000
