40
Properties=species:S:1:pos:R:3 #=T CELL(abcABC):=T 1.889726e+02=T 90.00000=T Traj:=T positionsangstrom=T Step:=T 0=T Bead:=T pbc="F F F"
C      -43.05730000     -32.84820000     -72.75760000
C      -44.18940000     -32.45520000     -73.48910000
C      -45.07310000     -33.42680000     -73.91000000
C      -44.80470000     -34.80540000     -73.71910000
C      -43.64030000     -35.18060000     -73.06180000
C      -42.72930000     -34.20550000     -72.71430000
H      -42.40730000     -32.06220000     -72.43870000
H      -45.90810000     -33.08600000     -74.44630000
H      -43.46810000     -36.18940000     -72.75290000
H      -41.74890000     -34.45850000     -72.35650000
C      -45.73290000     -35.87270000     -74.26260000
H      -45.26040000     -36.89860000     -74.28480000
H      -46.18290000     -35.59480000     -75.14270000
C      -44.43050000     -30.98980000     -73.70250000
H      -43.50120000     -30.52130000     -73.96550000
H      -45.08120000     -30.82370000     -74.56470000
S      -47.02510000     -36.24720000     -72.95590000
S      -45.19810000     -30.07860000     -72.27370000
C      -47.58720000     -34.61220000     -72.37040000
H      -46.87040000     -33.93130000     -72.81580000
H      -48.51540000     -34.36080000     -72.84240000
C      -46.83730000     -31.01790000     -71.91670000
H      -46.63460000     -31.95510000     -72.45140000
H      -47.64090000     -30.49850000     -72.49630000
C      -47.14930000     -30.99880000     -70.40050000
H      -47.11300000     -29.87250000     -70.16800000
H      -48.18500000     -31.35170000     -70.16040000
C      -47.72500000     -34.41150000     -70.92300000
H      -48.48570000     -35.11350000     -70.52290000
H      -48.08800000     -33.41960000     -70.71900000
C      -46.37190000     -34.42120000     -70.18700000
C      -45.67320000     -35.53130000     -69.89330000
C      -45.84730000     -33.25610000     -69.48230000
H      -45.81280000     -36.47830000     -70.23340000
C      -44.74760000     -33.55510000     -68.72330000
C      -46.06280000     -31.80100000     -69.64190000
C      -45.06040000     -31.12080000     -68.93950000
S      -44.29420000     -35.24260000     -68.85770000
S      -43.93360000     -32.22690000     -68.03950000
H      -45.17730000     -29.99250000     -68.66060000
