40
Properties=species:S:1:pos:R:3 #=T CELL(abcABC):=T 1.889726e+02=T 90.00000=T Traj:=T positionsangstrom=T Step:=T 0=T Bead:=T pbc="F F F"
C      -48.61170000     -31.21180000     -68.00190000
C      -47.50310000     -32.09930000     -68.36590000
C      -47.75800000     -33.01680000     -69.41550000
C      -49.00030000     -33.01080000     -70.09720000
C      -50.02990000     -32.19240000     -69.61820000
C      -49.87620000     -31.30820000     -68.55850000
H      -48.52910000     -30.29710000     -67.40640000
H      -47.00880000     -33.71830000     -69.57720000
H      -51.08690000     -32.27500000     -70.02490000
H      -50.62460000     -30.56590000     -68.20890000
C      -49.14700000     -33.80710000     -71.32310000
H      -50.18000000     -33.82550000     -71.66420000
H      -48.79900000     -34.89010000     -71.22440000
C      -46.12110000     -31.98720000     -67.67120000
H      -46.16990000     -31.37370000     -66.76560000
H      -45.75290000     -33.07960000     -67.43920000
S      -48.11300000     -33.05840000     -72.65630000
S      -44.84130000     -31.14920000     -68.73010000
C      -46.62200000     -34.08530000     -72.67880000
H      -46.18630000     -34.17960000     -71.70670000
H      -46.83790000     -35.16540000     -72.93520000
C      -44.54160000     -32.36190000     -70.03030000
H      -45.39320000     -32.41500000     -70.73100000
H      -44.48030000     -33.31070000     -69.42180000
C      -43.30240000     -32.10660000     -70.99630000
H      -43.50420000     -31.39880000     -71.82540000
H      -42.51570000     -31.60520000     -70.40320000
C      -45.55130000     -33.39410000     -73.46590000
H      -45.30280000     -32.41650000     -72.84360000
H      -45.83400000     -33.03950000     -74.42830000
C      -44.34370000     -34.20280000     -73.57660000
C      -44.19240000     -35.19300000     -74.58590000
C      -43.19800000     -34.18360000     -72.71580000
H      -44.80380000     -35.49600000     -75.46440000
C      -42.24480000     -35.09920000     -73.10660000
C      -42.75020000     -33.32150000     -71.65290000
C      -41.53560000     -33.78280000     -71.22220000
S      -42.72150000     -36.05640000     -74.51440000
S      -40.92050000     -35.21710000     -72.00080000
H      -41.18910000     -33.33150000     -70.28790000
