40
Properties=species:S:1:pos:R:3 #=T CELL(abcABC):=T 1.889726e+02=T 90.00000=T Traj:=T positionsangstrom=T Step:=T 0=T Bead:=T pbc="F F F"
C      -42.95520000     -32.13240000     -72.21020000
C      -44.01020000     -32.00440000     -73.12590000
C      -44.67140000     -33.19170000     -73.59590000
C      -44.32430000     -34.43970000     -73.04510000
C      -43.32630000     -34.56290000     -72.11130000
C      -42.70520000     -33.36740000     -71.64430000
H      -42.38090000     -31.28530000     -71.78410000
H      -45.28060000     -33.24120000     -74.50950000
H      -42.97890000     -35.58510000     -71.68410000
H      -41.81740000     -33.46500000     -70.94220000
C      -44.99130000     -35.61650000     -73.71580000
H      -44.31470000     -36.45130000     -73.80860000
H      -45.30630000     -35.33400000     -74.68210000
C      -44.40750000     -30.62280000     -73.69250000
H      -43.50810000     -29.95760000     -73.84740000
H      -44.95750000     -30.80480000     -74.63110000
S      -46.43970000     -36.35520000     -72.83310000
S      -45.43500000     -29.74290000     -72.43400000
C      -47.52370000     -34.90110000     -72.55560000
H      -46.94750000     -33.98380000     -72.79970000
H      -48.33770000     -34.87150000     -73.27860000
C      -46.89360000     -30.91910000     -72.24910000
H      -46.70830000     -31.76960000     -72.99650000
H      -47.84200000     -30.32870000     -72.51220000
C      -47.21040000     -31.38160000     -70.78140000
H      -47.60320000     -30.59380000     -70.10490000
H      -48.12290000     -32.02640000     -70.72080000
C      -48.07160000     -34.83990000     -71.09570000
H      -48.72090000     -35.68100000     -70.77470000
H      -48.72810000     -33.98880000     -71.10270000
C      -46.86790000     -34.77140000     -70.21420000
C      -46.28390000     -35.86710000     -69.62500000
C      -46.00450000     -33.58110000     -69.88060000
H      -46.66650000     -36.91110000     -69.73430000
C      -44.94460000     -33.85560000     -69.05230000
C      -46.07270000     -32.11930000     -70.18310000
C      -45.05740000     -31.42740000     -69.70900000
S      -44.88560000     -35.62340000     -68.64290000
S      -43.86740000     -32.41450000     -68.86100000
H      -44.97510000     -30.32480000     -69.76850000
