40
Properties=species:S:1:pos:R:3 #=T CELL(abcABC):=T 1.889726e+02=T 90.00000=T Traj:=T positionsangstrom=T Step:=T 0=T Bead:=T pbc="F F F"
C      -47.48950000     -33.32970000     -74.40720000
C      -48.03730000     -32.91570000     -73.19050000
C      -48.23170000     -33.89130000     -72.20950000
C      -47.81360000     -35.22570000     -72.32150000
C      -47.33700000     -35.58870000     -73.58360000
C      -47.09700000     -34.65940000     -74.58000000
H      -47.14960000     -32.58060000     -75.12580000
H      -48.52760000     -33.45410000     -71.32560000
H      -47.03980000     -36.62500000     -73.62940000
H      -46.53130000     -34.98540000     -75.43730000
C      -47.88030000     -36.21100000     -71.24000000
H      -46.92030000     -36.79080000     -71.02360000
H      -48.69540000     -36.85190000     -71.27500000
C      -48.31020000     -31.43030000     -72.88820000
H      -48.97230000     -30.98020000     -73.68490000
H      -48.76920000     -31.24430000     -71.89070000
S      -48.14760000     -35.41460000     -69.56780000
S      -46.82120000     -30.34170000     -73.07010000
C      -46.45380000     -35.20960000     -69.00870000
H      -46.58690000     -34.84810000     -67.91560000
H      -45.87200000     -36.08040000     -68.92380000
C      -45.72010000     -31.18100000     -71.79420000
H      -46.51610000     -31.70400000     -71.16160000
H      -45.26990000     -30.43620000     -71.18470000
C      -44.78010000     -32.08970000     -72.51600000
H      -45.42420000     -32.93310000     -72.75010000
H      -44.42070000     -31.63310000     -73.41830000
C      -45.71320000     -34.23390000     -69.91220000
H      -46.30950000     -33.26160000     -69.76250000
H      -45.84330000     -34.43790000     -71.00970000
C      -44.18780000     -33.85070000     -69.62370000
C      -43.52170000     -34.35160000     -68.50640000
C      -43.26550000     -33.17100000     -70.53590000
H      -43.86490000     -34.89160000     -67.68400000
C      -41.92390000     -33.11390000     -70.08920000
C      -43.50690000     -32.43030000     -71.75440000
C      -42.30710000     -31.82000000     -72.18560000
S      -41.69270000     -34.01240000     -68.56160000
S      -40.94150000     -32.19710000     -71.17200000
H      -42.26110000     -31.11000000     -73.03380000
