40
Properties=species:S:1:pos:R:3 #=T CELL(abcABC):=T 1.889726e+02=T 90.00000=T Traj:=T positionsangstrom=T Step:=T 0=T Bead:=T pbc="F F F"
C      -42.95960000     -32.09440000     -72.38320000
C      -44.07070000     -31.99390000     -73.22740000
C      -44.71550000     -33.18260000     -73.65630000
C      -44.26590000     -34.42620000     -73.17800000
C      -43.17620000     -34.49460000     -72.26810000
C      -42.50580000     -33.32570000     -71.91140000
H      -42.31140000     -31.23060000     -72.14900000
H      -45.61680000     -33.11820000     -74.28060000
H      -43.02520000     -35.51030000     -71.81790000
H      -41.70420000     -33.26370000     -71.23540000
C      -44.88600000     -35.74390000     -73.65080000
H      -44.03910000     -36.45230000     -73.67400000
H      -45.17370000     -35.60300000     -74.72150000
C      -44.52460000     -30.62630000     -73.69000000
H      -43.70820000     -29.97210000     -73.86120000
H      -45.08090000     -30.70520000     -74.62620000
S      -46.38220000     -36.40510000     -72.62290000
S      -45.49450000     -29.72070000     -72.41210000
C      -47.50360000     -34.89900000     -72.53600000
H      -46.94490000     -34.01610000     -72.71710000
H      -48.31430000     -34.96520000     -73.26380000
C      -47.07890000     -30.85000000     -72.27310000
H      -46.89740000     -31.60090000     -73.04890000
H      -47.91440000     -30.31230000     -72.54180000
C      -47.15970000     -31.35150000     -70.77960000
H      -47.44570000     -30.50960000     -70.23550000
H      -47.94660000     -32.13080000     -70.84010000
C      -48.11090000     -34.73530000     -71.12550000
H      -48.86200000     -35.49110000     -70.87050000
H      -48.61430000     -33.77840000     -71.18980000
C      -46.90880000     -34.63730000     -70.17690000
C      -46.47950000     -35.80670000     -69.54920000
C      -46.03030000     -33.49900000     -69.95050000
H      -46.90000000     -36.80750000     -69.84780000
C      -44.99860000     -33.88870000     -69.09510000
C      -45.92180000     -32.11370000     -70.21140000
C      -44.87150000     -31.47850000     -69.64520000
S      -44.92710000     -35.55540000     -68.70440000
S      -43.88460000     -32.64740000     -68.69850000
H      -44.59810000     -30.42070000     -69.58050000
