40
Properties=species:S:1:pos:R:3 #=T CELL(abcABC):=T 1.889726e+02=T 90.00000=T Traj:=T positionsangstrom=T Step:=T 0=T Bead:=T pbc="F F F"
C      -42.92610000     -32.47370000     -72.05370000
C      -43.84380000     -32.16540000     -73.10590000
C      -44.62040000     -33.11830000     -73.66860000
C      -44.48100000     -34.47430000     -73.24390000
C      -43.54130000     -34.82980000     -72.24160000
C      -42.74530000     -33.81020000     -71.73210000
H      -42.29860000     -31.69540000     -71.60390000
H      -45.26690000     -32.80710000     -74.46910000
H      -43.42040000     -35.77440000     -71.84010000
H      -42.14740000     -34.02510000     -70.87330000
C      -45.23600000     -35.50570000     -74.04680000
H      -44.62240000     -36.31760000     -74.35060000
H      -45.60420000     -35.02410000     -74.96540000
C      -44.16960000     -30.69340000     -73.43420000
H      -43.28790000     -30.11940000     -73.17350000
H      -44.35600000     -30.49260000     -74.51940000
S      -46.58020000     -36.22080000     -72.98330000
S      -45.59090000     -29.84970000     -72.62220000
C      -47.55750000     -34.74540000     -72.43110000
H      -46.88000000     -33.93240000     -72.56800000
H      -48.44860000     -34.62000000     -73.08320000
C      -46.89850000     -31.13420000     -72.45740000
H      -46.64090000     -31.97320000     -73.08290000
H      -47.81430000     -30.56900000     -72.82870000
C      -47.20870000     -31.46470000     -71.00120000
H      -47.42860000     -30.59830000     -70.42790000
H      -47.98460000     -32.13950000     -70.98690000
C      -47.90610000     -34.92110000     -70.96560000
H      -48.32530000     -35.93080000     -70.80980000
H      -48.67820000     -34.13620000     -70.77930000
C      -46.74180000     -34.75120000     -70.05370000
C      -45.92100000     -35.85040000     -69.66740000
C      -46.04740000     -33.48940000     -69.80000000
H      -46.18000000     -36.91030000     -69.68290000
C      -44.89580000     -33.73140000     -68.97770000
C      -46.10790000     -32.05430000     -70.15640000
C      -45.08090000     -31.33250000     -69.60800000
S      -44.62490000     -35.40320000     -68.57310000
S      -44.00520000     -32.28620000     -68.53470000
H      -44.96970000     -30.25610000     -69.59010000
