40
Properties=species:S:1:pos:R:3 #=T CELL(abcABC):=T 1.889726e+02=T 90.00000=T Traj:=T positionsangstrom=T Step:=T 0=T Bead:=T pbc="F F F"
C      -43.05830000     -32.05450000     -72.85860000
C      -44.12530000     -31.94300000     -73.80850000
C      -44.77120000     -33.13460000     -74.17210000
C      -44.31160000     -34.42360000     -73.71520000
C      -43.22850000     -34.44450000     -72.82930000
C      -42.54330000     -33.27590000     -72.45530000
H      -42.53020000     -31.11730000     -72.56180000
H      -45.57360000     -32.91970000     -74.85570000
H      -42.88190000     -35.34250000     -72.36670000
H      -41.68200000     -33.35520000     -71.70000000
C      -44.93150000     -35.74620000     -74.02680000
H      -44.14560000     -36.51170000     -74.03800000
H      -45.17730000     -35.78410000     -75.09730000
C      -44.61830000     -30.59980000     -74.15300000
H      -43.84480000     -30.03800000     -74.67350000
H      -45.51140000     -30.73380000     -74.81050000
S      -46.13690000     -36.34530000     -72.77810000
S      -45.26690000     -29.77760000     -72.55740000
C      -47.25570000     -34.89130000     -72.47310000
H      -46.70360000     -33.96910000     -72.61730000
H      -48.06480000     -34.88110000     -73.23680000
C      -46.61150000     -31.07850000     -72.24310000
H      -46.29830000     -32.04750000     -72.61950000
H      -47.59350000     -30.72740000     -72.67060000
C      -47.10340000     -31.42660000     -70.84260000
H      -47.56950000     -30.52410000     -70.28860000
H      -48.04650000     -32.03950000     -70.85020000
C      -47.85680000     -35.00160000     -71.06140000
H      -48.28210000     -36.02940000     -71.01570000
H      -48.72340000     -34.29220000     -71.07410000
C      -46.82600000     -34.79710000     -69.97060000
C      -46.40850000     -35.90040000     -69.24080000
C      -46.03670000     -33.58370000     -69.66700000
H      -46.78040000     -36.89890000     -69.41020000
C      -45.07750000     -33.85290000     -68.62070000
C      -46.12100000     -32.16720000     -69.97240000
C      -45.16600000     -31.47070000     -69.25340000
S      -45.09960000     -35.47380000     -68.15410000
S      -44.24450000     -32.43670000     -68.09860000
H      -45.18980000     -30.38430000     -69.15000000
