40
Properties=species:S:1:pos:R:3 #=T CELL(abcABC):=T 1.889726e+02=T 90.00000=T Traj:=T positionsangstrom=T Step:=T 0=T Bead:=T pbc="F F F"
C      -45.48350000     -37.14680000     -71.06560000
C      -46.60920000     -36.36490000     -70.82500000
C      -47.16740000     -35.76000000     -72.01120000
C      -46.68770000     -35.89920000     -73.30030000
C      -45.63420000     -36.77540000     -73.48960000
C      -45.02580000     -37.40900000     -72.36330000
H      -44.96540000     -37.66970000     -70.28200000
H      -47.97880000     -35.00920000     -71.87930000
H      -45.25130000     -36.98580000     -74.47860000
H      -44.14630000     -38.06160000     -72.51310000
C      -47.33010000     -35.12140000     -74.40700000
H      -48.39640000     -34.91040000     -74.20940000
H      -47.30990000     -35.65590000     -75.41790000
C      -47.05200000     -36.13390000     -69.40240000
H      -47.78950000     -35.30870000     -69.33240000
H      -47.64770000     -37.00900000     -69.05240000
S      -46.41100000     -33.45290000     -74.64550000
S      -45.55170000     -36.00660000     -68.28980000
C      -47.35440000     -32.37150000     -73.40540000
H      -47.27380000     -31.42160000     -73.88560000
H      -48.39400000     -32.67640000     -73.40060000
C      -44.59890000     -34.60300000     -69.07890000
H      -44.38040000     -34.80100000     -70.13510000
H      -43.65200000     -34.59240000     -68.59170000
C      -45.36710000     -33.26030000     -68.92210000
H      -46.32510000     -33.32480000     -69.36560000
H      -45.38900000     -33.15590000     -67.84000000
C      -46.66000000     -32.37260000     -72.01590000
H      -46.27870000     -33.33800000     -71.76840000
H      -47.38170000     -32.13460000     -71.31920000
C      -45.48890000     -31.43140000     -71.88900000
C      -45.15460000     -30.49940000     -72.82200000
C      -44.67170000     -31.41080000     -70.71870000
H      -45.57470000     -30.43260000     -73.86200000
C      -43.61740000     -30.51600000     -70.87060000
C      -44.52930000     -32.09930000     -69.43570000
C      -43.59450000     -31.48000000     -68.59180000
S      -43.67410000     -29.66970000     -72.38700000
S      -42.65700000     -30.18690000     -69.36450000
H      -43.33150000     -31.73900000     -67.54670000
