40
Properties=species:S:1:pos:R:3 #=T CELL(abcABC):=T 1.889726e+02=T 90.00000=T Traj:=T positionsangstrom=T Step:=T 0=T Bead:=T pbc="F F F"
C      -43.23550000     -32.08060000     -72.04050000
C      -44.09040000     -31.87610000     -73.17160000
C      -44.65890000     -33.00660000     -73.77290000
C      -44.31430000     -34.31360000     -73.34350000
C      -43.43960000     -34.46140000     -72.26710000
C      -42.91220000     -33.36110000     -71.59600000
H      -43.01610000     -31.20940000     -71.47810000
H      -45.26150000     -32.94130000     -74.64170000
H      -43.18450000     -35.49640000     -71.99220000
H      -42.29020000     -33.52460000     -70.70450000
C      -44.87350000     -35.41630000     -74.15960000
H      -44.02690000     -36.11030000     -74.43250000
H      -45.34500000     -35.00180000     -75.07390000
C      -44.53630000     -30.52790000     -73.69730000
H      -43.58040000     -29.98130000     -73.91180000
H      -45.21190000     -30.45350000     -74.50860000
S      -46.12110000     -36.25860000     -73.11890000
S      -45.47950000     -29.79740000     -72.32680000
C      -47.26240000     -34.87780000     -72.85120000
H      -46.81550000     -33.88980000     -73.19920000
H      -48.15860000     -34.88750000     -73.53230000
C      -46.92910000     -30.88580000     -72.24570000
H      -46.74310000     -31.75350000     -72.86030000
H      -47.85690000     -30.38930000     -72.59790000
C      -47.18020000     -31.43720000     -70.72840000
H      -47.36120000     -30.53850000     -70.16990000
H      -48.17020000     -31.87780000     -70.73090000
C      -47.74430000     -34.81220000     -71.38820000
H      -48.40880000     -35.69120000     -71.18160000
H      -48.50630000     -33.95540000     -71.25740000
C      -46.69370000     -34.77000000     -70.28450000
C      -46.15590000     -35.93410000     -69.75910000
C      -45.97470000     -33.63330000     -69.86770000
H      -46.69960000     -36.90970000     -69.86620000
C      -45.04740000     -33.94820000     -68.91040000
C      -46.07230000     -32.18960000     -70.08700000
C      -45.12250000     -31.56570000     -69.29850000
S      -44.88980000     -35.68090000     -68.60840000
S      -44.15320000     -32.63450000     -68.29240000
H      -44.99130000     -30.50250000     -69.34780000
