40
Properties=species:S:1:pos:R:3 #=T CELL(abcABC):=T 1.889726e+02=T 90.00000=T Traj:=T positionsangstrom=T Step:=T 0=T Bead:=T pbc="F F F"
C      -42.85840000     -31.94150000     -72.18290000
C      -43.85880000     -31.68650000     -73.09230000
C      -44.47760000     -32.74690000     -73.77420000
C      -44.14720000     -34.07260000     -73.44690000
C      -43.07410000     -34.37230000     -72.61320000
C      -42.43140000     -33.25660000     -71.96230000
H      -42.38560000     -31.11510000     -71.64360000
H      -45.22730000     -32.55810000     -74.53310000
H      -42.81950000     -35.34060000     -72.32300000
H      -41.68790000     -33.56010000     -71.23560000
C      -44.80510000     -35.21570000     -74.04300000
H      -44.02910000     -36.03780000     -74.14890000
H      -45.27640000     -34.91640000     -74.98660000
C      -44.40410000     -30.33890000     -73.16950000
H      -43.68540000     -29.52490000     -72.83520000
H      -44.60230000     -30.14720000     -74.27870000
S      -46.16200000     -36.09400000     -72.97240000
S      -45.92660000     -29.71780000     -72.15390000
C      -47.44810000     -34.79110000     -72.57390000
H      -47.02810000     -33.78150000     -72.72170000
H      -48.24150000     -34.79010000     -73.31080000
C      -46.95690000     -31.16850000     -72.29020000
H      -46.40300000     -31.96200000     -72.83940000
H      -47.91630000     -30.92180000     -72.86170000
C      -47.36400000     -31.71230000     -70.85900000
H      -47.59420000     -30.85670000     -70.22310000
H      -48.25150000     -32.37490000     -70.90240000
C      -48.03200000     -35.03960000     -71.15460000
H      -48.43400000     -36.05040000     -71.21610000
H      -48.85650000     -34.34010000     -70.87740000
C      -46.87470000     -35.02130000     -70.18040000
C      -46.28950000     -36.13170000     -69.64070000
C      -46.13610000     -33.79730000     -69.77520000
H      -46.63650000     -37.08590000     -69.76490000
C      -45.06230000     -34.06170000     -68.91150000
C      -46.23000000     -32.36550000     -70.09140000
C      -45.13860000     -31.65640000     -69.67570000
S      -44.80390000     -35.74540000     -68.56110000
S      -44.04650000     -32.68450000     -68.70110000
H      -44.95240000     -30.56030000     -69.83610000
