40
Properties=species:S:1:pos:R:3 #=T CELL(abcABC):=T 1.889726e+02=T 90.00000=T Traj:=T positionsangstrom=T Step:=T 0=T Bead:=T pbc="F F F"
C      -42.98440000     -32.03310000     -71.93890000
C      -43.90680000     -31.67600000     -72.91730000
C      -44.60140000     -32.67060000     -73.63540000
C      -44.27130000     -33.97210000     -73.43760000
C      -43.18260000     -34.29830000     -72.54190000
C      -42.59380000     -33.36320000     -71.72190000
H      -42.59140000     -31.19360000     -71.32510000
H      -45.49150000     -32.49790000     -74.21350000
H      -42.89000000     -35.34400000     -72.44090000
H      -41.82650000     -33.71520000     -71.02010000
C      -45.05700000     -35.08290000     -74.15390000
H      -44.43130000     -35.60410000     -74.80150000
H      -45.84260000     -34.72490000     -74.81900000
C      -44.30240000     -30.23420000     -73.21660000
H      -43.48940000     -29.51640000     -73.06140000
H      -44.51200000     -30.07130000     -74.26440000
S      -45.93250000     -36.16670000     -73.05750000
S      -45.80240000     -29.67670000     -72.21020000
C      -47.48150000     -35.07070000     -72.62030000
H      -46.95510000     -34.09390000     -72.65860000
H      -48.28720000     -35.18650000     -73.31390000
C      -47.06980000     -30.96740000     -72.26230000
H      -46.90090000     -31.75300000     -73.00530000
H      -47.95770000     -30.51550000     -72.54510000
C      -47.34480000     -31.68550000     -70.89440000
H      -47.87580000     -31.02630000     -70.21940000
H      -48.16870000     -32.41590000     -71.07360000
C      -48.00250000     -35.23060000     -71.11140000
H      -48.50820000     -36.14520000     -70.85670000
H      -48.84780000     -34.53200000     -71.00830000
C      -46.86110000     -35.01220000     -70.13360000
C      -46.30040000     -36.10050000     -69.50790000
C      -46.07360000     -33.78690000     -69.92480000
H      -46.79750000     -37.00740000     -69.38660000
C      -44.96330000     -34.09840000     -69.16240000
C      -46.14120000     -32.40950000     -70.17740000
C      -45.20630000     -31.66380000     -69.53910000
S      -44.86260000     -35.80180000     -68.61720000
S      -43.98540000     -32.60370000     -68.73140000
H      -44.98360000     -30.59230000     -69.70890000
