40
Properties=species:S:1:pos:R:3 #=T CELL(abcABC):=T 1.889726e+02=T 90.00000=T Traj:=T positionsangstrom=T Step:=T 0=T Bead:=T pbc="F F F"
C      -43.29910000     -31.93930000     -71.86180000
C      -44.08580000     -31.70900000     -72.97560000
C      -44.58990000     -32.78800000     -73.72300000
C      -44.34690000     -34.10270000     -73.35110000
C      -43.34270000     -34.30580000     -72.39520000
C      -42.93880000     -33.25360000     -71.59320000
H      -42.96340000     -31.10490000     -71.24810000
H      -45.42610000     -32.57220000     -74.38620000
H      -43.08690000     -35.29620000     -72.12720000
H      -42.31230000     -33.35360000     -70.77880000
C      -44.88620000     -35.21590000     -74.28470000
H      -43.94620000     -35.69090000     -74.65400000
H      -45.42190000     -34.79760000     -75.06300000
C      -44.55040000     -30.28010000     -73.38010000
H      -43.63490000     -29.71300000     -73.46570000
H      -44.96180000     -30.11740000     -74.37550000
S      -46.00050000     -36.39320000     -73.29140000
S      -45.67720000     -29.66750000     -72.01140000
C      -47.34510000     -35.20460000     -72.90070000
H      -46.90570000     -34.18280000     -73.01550000
H      -48.13650000     -35.43910000     -73.60400000
C      -47.12810000     -30.88210000     -72.15500000
H      -46.82340000     -31.49350000     -72.94260000
H      -48.06040000     -30.31680000     -72.32490000
C      -47.38960000     -31.76060000     -70.99800000
H      -48.00070000     -31.27950000     -70.18310000
H      -48.02090000     -32.63680000     -71.41370000
C      -47.72860000     -35.18160000     -71.44970000
H      -48.39990000     -36.00420000     -71.09760000
H      -48.35160000     -34.34370000     -71.26140000
C      -46.54760000     -35.05530000     -70.35360000
C      -45.86220000     -36.15730000     -69.77760000
C      -46.00930000     -33.80880000     -69.91590000
H      -46.09810000     -37.27910000     -70.04290000
C      -45.03110000     -33.93570000     -68.88280000
C      -46.19120000     -32.37490000     -70.16150000
C      -45.34910000     -31.57060000     -69.39780000
S      -44.61230000     -35.68000000     -68.65800000
S      -44.19860000     -32.43840000     -68.35680000
H      -45.49690000     -30.51120000     -69.37160000
