40
Properties=species:S:1:pos:R:3 #=T CELL(abcABC):=T 1.889726e+02=T 90.00000=T Traj:=T positionsangstrom=T Step:=T 0=T Bead:=T pbc="F F F"
C      -46.61920000     -35.57430000     -74.52240000
C      -47.43990000     -34.81730000     -73.61280000
C      -47.76040000     -35.33160000     -72.37300000
C      -47.07620000     -36.49550000     -71.92620000
C      -46.19820000     -37.20190000     -72.69560000
C      -45.86770000     -36.70650000     -73.99880000
H      -46.35310000     -35.15520000     -75.50810000
H      -48.39300000     -34.78340000     -71.68910000
H      -45.70720000     -38.16170000     -72.27710000
H      -45.22200000     -37.32750000     -74.61090000
C      -47.23790000     -36.93400000     -70.50300000
H      -46.46530000     -37.70860000     -70.20440000
H      -48.18350000     -37.40940000     -70.39080000
C      -48.07470000     -33.47740000     -74.19680000
H      -48.69370000     -33.84220000     -75.02170000
H      -48.70060000     -33.04590000     -73.46400000
S      -47.34760000     -35.77630000     -69.06820000
S      -46.94180000     -32.14360000     -74.72320000
C      -45.50870000     -35.21050000     -68.93620000
H      -45.47380000     -34.77630000     -67.94860000
H      -44.78060000     -36.00580000     -69.02810000
C      -46.07350000     -31.64540000     -73.21880000
H      -46.76520000     -31.55810000     -72.36510000
H      -45.78820000     -30.62990000     -73.38350000
C      -44.80080000     -32.29990000     -72.76430000
H      -45.08090000     -33.30840000     -72.42610000
H      -44.00460000     -32.31900000     -73.52190000
C      -45.16280000     -34.16420000     -69.97240000
H      -46.04830000     -33.62400000     -70.18990000
H      -44.77090000     -34.66180000     -70.90490000
C      -44.16260000     -33.07370000     -69.47850000
C      -43.62610000     -33.07350000     -68.21690000
C      -43.81050000     -31.88960000     -70.29210000
H      -43.66230000     -33.90350000     -67.53020000
C      -42.89450000     -31.05260000     -69.64140000
C      -44.17440000     -31.48470000     -71.62840000
C      -43.50410000     -30.31230000     -71.93400000
S      -42.45820000     -31.67870000     -68.05340000
S      -42.43320000     -29.68830000     -70.59150000
H      -43.39750000     -29.86440000     -72.90140000
