40
Properties=species:S:1:pos:R:3 #=T CELL(abcABC):=T 1.889726e+02=T 90.00000=T Traj:=T positionsangstrom=T Step:=T 0=T Bead:=T pbc="F F F"
C      -46.24840000     -34.33660000     -68.89900000
C      -46.87500000     -34.64430000     -70.13450000
C      -46.13810000     -35.23030000     -71.12410000
C      -44.76660000     -35.52770000     -71.00140000
C      -44.18960000     -35.36420000     -69.72600000
C      -44.95620000     -34.75960000     -68.70480000
H      -46.71440000     -33.69520000     -68.14070000
H      -46.62610000     -35.44370000     -72.03490000
H      -43.11110000     -35.51010000     -69.55940000
H      -44.47290000     -34.41140000     -67.78080000
C      -43.87070000     -36.05400000     -72.06790000
H      -43.43760000     -37.06310000     -71.95940000
H      -43.00720000     -35.36840000     -72.15230000
C      -48.38220000     -34.49270000     -70.37610000
H      -48.75670000     -34.81670000     -71.41450000
H      -48.87610000     -35.12210000     -69.61910000
S      -44.58650000     -36.23780000     -73.81910000
S      -49.00720000     -32.73700000     -70.10770000
C      -44.02400000     -34.61450000     -74.62960000
H      -42.94530000     -34.44640000     -74.50550000
H      -44.26850000     -34.73810000     -75.69070000
C      -48.62540000     -31.81330000     -71.70030000
H      -48.71230000     -30.75960000     -71.39170000
H      -49.32480000     -31.98400000     -72.49940000
C      -47.20590000     -31.98650000     -72.28440000
H      -47.04710000     -32.97310000     -72.57060000
H      -47.09370000     -31.37740000     -73.23770000
C      -44.75770000     -33.42130000     -74.06370000
H      -45.71690000     -33.69290000     -73.86160000
H      -44.77620000     -32.72560000     -74.92830000
C      -44.06300000     -32.77210000     -72.83770000
C      -42.65570000     -32.89600000     -72.66850000
C      -44.72790000     -32.06890000     -71.77160000
H      -41.99230000     -33.65810000     -73.09230000
C      -43.82360000     -31.68840000     -70.78300000
C      -46.04090000     -31.62920000     -71.44540000
C      -46.08570000     -30.99210000     -70.19170000
S      -42.19660000     -32.10490000     -71.11330000
S      -44.46390000     -30.93480000     -69.42770000
H      -46.91300000     -30.41630000     -69.85210000
