40
Properties=species:S:1:pos:R:3 #=T CELL(abcABC):=T 1.889726e+02=T 90.00000=T Traj:=T positionsangstrom=T Step:=T 0=T Bead:=T pbc="F F F"
C      -47.56430000     -31.40320000     -68.36910000
C      -46.17230000     -31.70210000     -68.29950000
C      -45.26330000     -30.93090000     -69.04780000
C      -45.72150000     -30.06650000     -70.07190000
C      -47.09370000     -29.79310000     -70.16070000
C      -47.98660000     -30.50010000     -69.31570000
H      -48.25470000     -31.95080000     -67.76540000
H      -44.16010000     -31.12080000     -69.01450000
H      -47.42720000     -28.99360000     -70.85140000
H      -49.04240000     -30.35490000     -69.45820000
C      -44.77240000     -29.52460000     -71.11200000
H      -43.76110000     -29.75930000     -70.96420000
H      -44.89470000     -28.45470000     -71.15690000
C      -45.52190000     -32.61000000     -67.23530000
H      -44.46480000     -32.41120000     -67.15550000
H      -45.97350000     -32.52360000     -66.24860000
S      -45.39160000     -29.98060000     -72.81640000
S      -45.72810000     -34.44680000     -67.52020000
C      -45.44790000     -31.78490000     -72.63780000
H      -46.09210000     -31.95030000     -71.76280000
H      -46.10190000     -32.15750000     -73.45990000
C      -44.96920000     -34.78180000     -69.23010000
H      -44.53690000     -35.80660000     -69.13160000
H      -44.10670000     -34.10180000     -69.35950000
C      -46.03200000     -34.84200000     -70.35830000
H      -46.95710000     -35.38300000     -70.02260000
H      -46.29090000     -33.78390000     -70.50040000
C      -44.08980000     -32.49070000     -72.38200000
H      -43.88920000     -32.66370000     -71.30670000
H      -43.25270000     -31.86070000     -72.75380000
C      -44.11290000     -33.84160000     -73.14500000
C      -43.51100000     -33.91960000     -74.40350000
C      -44.72790000     -35.04450000     -72.73450000
H      -43.05170000     -33.09810000     -74.87250000
C      -44.47640000     -36.09190000     -73.68550000
C      -45.42330000     -35.54830000     -71.55150000
C      -45.71160000     -36.82550000     -71.76480000
S      -43.74150000     -35.49410000     -75.10740000
S      -45.12650000     -37.57350000     -73.22100000
H      -46.17840000     -37.50780000     -71.08480000
