40
Properties=species:S:1:pos:R:3 #=T CELL(abcABC):=T 1.889726e+02=T 90.00000=T Traj:=T positionsangstrom=T Step:=T 0=T Bead:=T pbc="F F F"
C      -46.39850000     -35.49020000     -74.30560000
C      -47.26210000     -34.82670000     -73.36930000
C      -47.53470000     -35.36150000     -72.13950000
C      -46.92280000     -36.54580000     -71.79360000
C      -46.05070000     -37.23490000     -72.66730000
C      -45.82950000     -36.71410000     -73.90600000
H      -46.34840000     -35.04320000     -75.29540000
H      -48.16730000     -34.84220000     -71.41200000
H      -45.52980000     -38.17780000     -72.42220000
H      -45.04440000     -37.16240000     -74.48710000
C      -47.16450000     -37.08490000     -70.45740000
H      -46.41060000     -37.76390000     -70.14620000
H      -48.11350000     -37.69150000     -70.44340000
C      -47.99670000     -33.62550000     -73.83880000
H      -48.68440000     -33.99370000     -74.59650000
H      -48.67510000     -33.22800000     -73.04300000
S      -47.32240000     -35.81090000     -69.11080000
S      -46.95730000     -32.36240000     -74.71200000
C      -45.62990000     -35.06150000     -68.97390000
H      -45.70600000     -34.47560000     -68.04770000
H      -44.86750000     -35.85470000     -68.78940000
C      -46.25250000     -31.32340000     -73.36780000
H      -47.07100000     -30.98260000     -72.71010000
H      -45.80620000     -30.50360000     -73.93940000
C      -45.14950000     -32.16790000     -72.67690000
H      -45.58140000     -32.98840000     -72.15010000
H      -44.60900000     -32.65210000     -73.54180000
C      -45.19620000     -34.10620000     -70.02080000
H      -46.04350000     -33.43570000     -70.33110000
H      -44.87190000     -34.73010000     -70.85620000
C      -44.11350000     -33.13320000     -69.58480000
C      -43.54420000     -33.01710000     -68.36180000
C      -43.83130000     -31.95250000     -70.38460000
H      -43.62770000     -33.61250000     -67.46000000
C      -42.94510000     -31.07640000     -69.82590000
C      -44.25040000     -31.39810000     -71.74280000
C      -43.44210000     -30.33690000     -72.04720000
S      -42.54320000     -31.58610000     -68.10870000
S      -42.50150000     -29.67180000     -70.69580000
H      -43.46440000     -29.78880000     -72.94590000
