40
Properties=species:S:1:pos:R:3 #=T CELL(abcABC):=T 1.889726e+02=T 90.00000=T Traj:=T positionsangstrom=T Step:=T 0=T Bead:=T pbc="F F F"
C      -45.63690000     -35.45600000     -73.98000000
C      -46.88120000     -35.22500000     -73.37170000
C      -47.05350000     -35.88660000     -72.14810000
C      -46.05900000     -36.57250000     -71.47620000
C      -44.80170000     -36.76740000     -72.11190000
C      -44.66660000     -36.27600000     -73.39800000
H      -45.42310000     -34.91190000     -74.90840000
H      -48.00510000     -35.84670000     -71.58040000
H      -44.03290000     -37.32370000     -71.66170000
H      -43.85910000     -36.66380000     -73.95170000
C      -46.38060000     -37.24900000     -70.14470000
H      -45.66800000     -37.89910000     -69.73270000
H      -47.34680000     -37.71390000     -70.25530000
C      -47.99700000     -34.30880000     -73.93800000
H      -48.54330000     -34.89180000     -74.75880000
H      -48.66520000     -34.25180000     -73.06190000
S      -47.02970000     -35.97820000     -68.82340000
S      -47.46310000     -32.76470000     -74.67900000
C      -45.61230000     -34.89130000     -68.48660000
H      -45.82070000     -34.35830000     -67.51710000
H      -44.62150000     -35.36390000     -68.53500000
C      -46.68350000     -31.83020000     -73.35810000
H      -47.38750000     -31.58680000     -72.61360000
H      -46.31960000     -30.82880000     -73.77370000
C      -45.45980000     -32.52510000     -72.75010000
H      -45.80890000     -33.31690000     -72.10720000
H      -44.91050000     -32.91880000     -73.59020000
C      -45.50030000     -33.83410000     -69.63130000
H      -46.45920000     -33.45000000     -69.96070000
H      -45.18670000     -34.38020000     -70.50310000
C      -44.53420000     -32.69570000     -69.49230000
C      -43.85680000     -32.40810000     -68.31980000
C      -44.24620000     -31.74180000     -70.53530000
H      -43.75880000     -32.95630000     -67.39050000
C      -43.37310000     -30.71490000     -70.08750000
C      -44.62520000     -31.56290000     -71.96720000
C      -44.00990000     -30.52360000     -72.59050000
S      -42.70680000     -31.05760000     -68.45080000
S      -43.01350000     -29.56510000     -71.40110000
H      -43.98510000     -30.20260000     -73.56290000
