40
Properties=species:S:1:pos:R:3 #=T CELL(abcABC):=T 1.889726e+02=T 90.00000=T Traj:=T positionsangstrom=T Step:=T 0=T Bead:=T pbc="F F F"
C      -45.73000000     -35.39570000     -73.94880000
C      -46.99710000     -35.16210000     -73.36040000
C      -47.15780000     -35.69990000     -72.08850000
C      -46.20180000     -36.48790000     -71.43590000
C      -45.06120000     -36.83970000     -72.12510000
C      -44.80100000     -36.22490000     -73.34090000
H      -45.43780000     -34.96770000     -74.95980000
H      -48.08450000     -35.49060000     -71.54240000
H      -44.29570000     -37.49720000     -71.65230000
H      -43.76990000     -36.26140000     -73.72430000
C      -46.45960000     -37.17090000     -70.12860000
H      -45.56690000     -37.72510000     -69.72710000
H      -47.14200000     -38.04650000     -70.30920000
C      -48.07630000     -34.31010000     -74.00420000
H      -48.58270000     -34.87870000     -74.77240000
H      -48.82130000     -33.97330000     -73.25620000
S      -47.09690000     -36.07500000     -68.78530000
S      -47.52310000     -32.72510000     -74.84310000
C      -45.60190000     -34.90420000     -68.55440000
H      -46.06000000     -34.30720000     -67.73250000
H      -44.71670000     -35.37740000     -68.15100000
C      -46.59380000     -31.63780000     -73.63150000
H      -47.35960000     -31.12140000     -73.01940000
H      -46.10020000     -30.89820000     -74.25860000
C      -45.60340000     -32.29550000     -72.67380000
H      -46.07850000     -32.99160000     -71.97170000
H      -44.90460000     -33.01950000     -73.16730000
C      -45.29840000     -34.00250000     -69.78630000
H      -46.25280000     -33.48260000     -70.16330000
H      -44.99820000     -34.61300000     -70.61870000
C      -44.31720000     -32.91260000     -69.55520000
C      -43.60080000     -32.65380000     -68.39510000
C      -44.15240000     -31.79080000     -70.54750000
H      -43.74550000     -33.19690000     -67.48960000
C      -43.21420000     -30.88570000     -70.06870000
C      -44.63980000     -31.42050000     -71.89550000
C      -44.00330000     -30.32140000     -72.39550000
S      -42.69600000     -31.11650000     -68.44110000
S      -42.83670000     -29.61780000     -71.21750000
H      -44.23170000     -29.85410000     -73.32470000
