40
Properties=species:S:1:pos:R:3 #=T CELL(abcABC):=T 1.889726e+02=T 90.00000=T Traj:=T positionsangstrom=T Step:=T 0=T Bead:=T pbc="F F F"
C      -45.70590000     -35.97700000     -74.12950000
C      -46.79950000     -35.56320000     -73.42450000
C      -46.86790000     -35.85180000     -72.03640000
C      -45.86970000     -36.58130000     -71.36770000
C      -44.71840000     -36.86580000     -72.05730000
C      -44.65010000     -36.56300000     -73.43340000
H      -45.65940000     -35.84080000     -75.17760000
H      -47.72700000     -35.55930000     -71.45270000
H      -43.91000000     -37.35710000     -71.46510000
H      -43.70940000     -36.71330000     -74.00430000
C      -45.98240000     -37.09590000     -69.97560000
H      -45.01010000     -37.29440000     -69.51970000
H      -46.48970000     -38.03760000     -69.96790000
C      -47.98670000     -34.79730000     -74.00710000
H      -48.34990000     -35.34150000     -74.89490000
H      -48.73600000     -34.71550000     -73.16010000
S      -46.94120000     -35.98290000     -68.83750000
S      -47.54800000     -33.09510000     -74.53400000
C      -45.72610000     -34.57490000     -68.53200000
H      -46.02570000     -33.96810000     -67.73070000
H      -44.80210000     -35.10130000     -68.14360000
C      -46.84830000     -32.19720000     -73.08180000
H      -47.27380000     -32.58290000     -72.12220000
H      -47.05950000     -31.17930000     -73.17700000
C      -45.32010000     -32.43120000     -72.89390000
H      -45.22290000     -33.41710000     -72.45010000
H      -44.89860000     -32.51460000     -73.89570000
C      -45.48210000     -33.72370000     -69.73930000
H      -46.43700000     -33.37660000     -70.07580000
H      -45.07600000     -34.34760000     -70.59140000
C      -44.57740000     -32.51710000     -69.60880000
C      -44.01850000     -32.13850000     -68.41820000
C      -44.28120000     -31.54480000     -70.61240000
H      -44.28170000     -32.58580000     -67.46430000
C      -43.38480000     -30.55640000     -70.18690000
C      -44.47850000     -31.48830000     -72.07430000
C      -43.86690000     -30.42650000     -72.63190000
S      -43.02240000     -30.67880000     -68.45220000
S      -43.04130000     -29.41370000     -71.38720000
H      -44.01710000     -30.07140000     -73.68610000
