40
Properties=species:S:1:pos:R:3 #=T CELL(abcABC):=T 1.889726e+02=T 90.00000=T Traj:=T positionsangstrom=T Step:=T 0=T Bead:=T pbc="F F F"
C      -45.61230000     -36.07270000     -74.10550000
C      -46.72420000     -35.63120000     -73.36680000
C      -46.82180000     -36.09120000     -72.03400000
C      -45.77320000     -36.77430000     -71.36870000
C      -44.68650000     -37.17360000     -72.12490000
C      -44.56970000     -36.76790000     -73.49890000
H      -45.49190000     -35.70200000     -75.14370000
H      -47.65440000     -35.70980000     -71.43570000
H      -43.91330000     -37.74370000     -71.56760000
H      -43.74610000     -37.22420000     -74.10050000
C      -45.86000000     -37.06700000     -69.86960000
H      -44.83390000     -37.04600000     -69.43740000
H      -46.27580000     -38.10840000     -69.78580000
C      -47.87340000     -34.86250000     -74.04710000
H      -48.03020000     -35.46210000     -74.99560000
H      -48.82040000     -34.89600000     -73.47090000
S      -46.85720000     -35.91920000     -68.78880000
S      -47.59110000     -33.11690000     -74.43320000
C      -45.90180000     -34.32130000     -68.48710000
H      -46.60270000     -33.59900000     -67.98400000
H      -44.98370000     -34.56260000     -67.91220000
C      -46.80800000     -32.34650000     -72.90250000
H      -47.32720000     -32.63880000     -72.00930000
H      -47.14000000     -31.32590000     -73.03370000
C      -45.23680000     -32.34690000     -72.99250000
H      -44.87120000     -33.40580000     -72.75840000
H      -44.93890000     -32.06840000     -73.98440000
C      -45.46720000     -33.76780000     -69.81230000
H      -46.35670000     -33.65380000     -70.42610000
H      -44.86560000     -34.46100000     -70.39470000
C      -44.63240000     -32.45740000     -69.69640000
C      -44.09600000     -32.09440000     -68.46430000
C      -44.27870000     -31.43120000     -70.66820000
H      -44.30310000     -32.68550000     -67.62920000
C      -43.53920000     -30.38680000     -70.18560000
C      -44.51610000     -31.32790000     -72.09110000
C      -43.95320000     -30.23570000     -72.65230000
S      -43.21830000     -30.62120000     -68.40810000
S      -42.99220000     -29.39930000     -71.49810000
H      -43.70650000     -30.20870000     -73.67580000
