40
Properties=species:S:1:pos:R:3 #=T CELL(abcABC):=T 1.889726e+02=T 90.00000=T Traj:=T positionsangstrom=T Step:=T 0=T Bead:=T pbc="F F F"
C      -43.94120000     -30.83100000     -71.75470000
C      -45.04440000     -30.84280000     -72.59850000
C      -45.14000000     -31.89680000     -73.55930000
C      -44.18300000     -32.92140000     -73.63010000
C      -43.05310000     -32.77380000     -72.81930000
C      -42.98370000     -31.79280000     -71.86950000
H      -43.80940000     -30.02570000     -71.05440000
H      -46.07220000     -32.00350000     -74.17080000
H      -42.41750000     -33.70900000     -72.69210000
H      -42.04350000     -31.84610000     -71.26700000
C      -44.15070000     -34.09460000     -74.70010000
H      -43.00070000     -34.24420000     -74.93080000
H      -44.69510000     -33.67960000     -75.59330000
C      -46.25860000     -29.81820000     -72.31610000
H      -45.90040000     -28.81120000     -72.17020000
H      -47.01050000     -29.83310000     -73.20440000
S      -44.79480000     -35.61830000     -74.04270000
S      -47.15970000     -30.43920000     -70.76080000
C      -46.39750000     -35.06040000     -73.31390000
H      -46.23960000     -34.03490000     -73.10750000
H      -47.11630000     -35.08390000     -74.10760000
C      -47.88510000     -32.01350000     -71.41910000
H      -47.20970000     -32.41980000     -72.12800000
H      -48.81360000     -31.80810000     -71.99490000
C      -48.00250000     -33.06190000     -70.30540000
H      -48.67730000     -32.71660000     -69.57670000
H      -48.51470000     -33.96140000     -70.63150000
C      -46.71040000     -35.91440000     -72.07270000
H      -46.52290000     -36.92750000     -72.26480000
H      -47.69440000     -35.65410000     -71.77370000
C      -45.69100000     -35.55390000     -70.96250000
C      -44.50090000     -36.27110000     -70.86860000
C      -45.83020000     -34.45960000     -69.98310000
H      -44.12390000     -37.14210000     -71.41850000
C      -44.62230000     -34.41740000     -69.24710000
C      -46.71030000     -33.33890000     -69.64490000
C      -46.31620000     -32.55220000     -68.61010000
S      -43.48720000     -35.76150000     -69.47180000
S      -44.72140000     -33.08660000     -68.03240000
H      -47.01450000     -31.88820000     -68.18480000
