40
Properties=species:S:1:pos:R:3 #=T CELL(abcABC):=T 1.889726e+02=T 90.00000=T Traj:=T positionsangstrom=T Step:=T 0=T Bead:=T pbc="F F F"
C      -45.61020000     -36.42800000     -73.71190000
C      -46.76410000     -36.04970000     -72.97390000
C      -46.80360000     -36.27470000     -71.62330000
C      -45.67360000     -36.75700000     -70.90570000
C      -44.54900000     -37.20600000     -71.64400000
C      -44.58630000     -37.13870000     -73.04560000
H      -45.61020000     -36.29360000     -74.78320000
H      -47.66510000     -35.89610000     -71.08550000
H      -43.64230000     -37.65180000     -71.15880000
H      -43.67500000     -37.33400000     -73.56580000
C      -45.66010000     -37.02180000     -69.38550000
H      -44.55800000     -37.14400000     -69.14860000
H      -46.25030000     -37.86010000     -69.25050000
C      -47.84550000     -35.36660000     -73.70690000
H      -48.24740000     -36.00590000     -74.52030000
H      -48.66570000     -34.93560000     -73.14220000
S      -46.52690000     -35.78640000     -68.36760000
S      -47.25670000     -33.78700000     -74.67200000
C      -45.44840000     -34.31930000     -68.46420000
H      -45.69460000     -33.61670000     -67.58550000
H      -44.45430000     -34.60640000     -68.46920000
C      -46.50150000     -32.70320000     -73.32400000
H      -47.03190000     -32.90810000     -72.38290000
H      -46.75680000     -31.71490000     -73.65990000
C      -44.96870000     -32.73190000     -73.21190000
H      -44.57330000     -33.70490000     -72.82600000
H      -44.58790000     -32.48210000     -74.16960000
C      -45.64740000     -33.40030000     -69.75830000
H      -46.69940000     -33.17810000     -69.89200000
H      -45.45110000     -34.03410000     -70.62170000
C      -44.77780000     -32.05820000     -69.71520000
C      -44.43320000     -31.43770000     -68.53410000
C      -44.39640000     -31.35070000     -70.86790000
H      -44.61310000     -31.73850000     -67.53790000
C      -43.68710000     -30.18420000     -70.54960000
C      -44.48070000     -31.55210000     -72.38500000
C      -43.93950000     -30.43270000     -72.95010000
S      -43.71200000     -29.86170000     -68.87740000
S      -43.42930000     -29.12950000     -71.87640000
H      -44.10290000     -30.07900000     -73.97670000
