40
Properties=species:S:1:pos:R:3 #=T CELL(abcABC):=T 1.889726e+02=T 90.00000=T Traj:=T positionsangstrom=T Step:=T 0=T Bead:=T pbc="F F F"
C      -45.56930000     -36.83160000     -73.39640000
C      -46.57650000     -36.03600000     -72.80190000
C      -46.64330000     -35.94760000     -71.42810000
C      -45.68480000     -36.58930000     -70.59660000
C      -44.69330000     -37.33320000     -71.21060000
C      -44.66170000     -37.51740000     -72.58900000
H      -45.49100000     -36.87670000     -74.45120000
H      -47.49550000     -35.51830000     -70.91850000
H      -43.92920000     -37.92930000     -70.64030000
H      -43.90620000     -38.09960000     -73.02640000
C      -45.69880000     -36.53570000     -69.06880000
H      -44.61260000     -36.40190000     -68.77060000
H      -46.02110000     -37.45540000     -68.55190000
C      -47.72960000     -35.40630000     -73.59270000
H      -48.00980000     -36.22060000     -74.27600000
H      -48.62740000     -35.20140000     -73.04290000
S      -46.81280000     -35.29050000     -68.32250000
S      -47.19490000     -34.04780000     -74.73950000
C      -45.79870000     -33.77910000     -68.42340000
H      -46.43510000     -33.04770000     -67.93410000
H      -44.98900000     -33.88910000     -67.73780000
C      -46.68690000     -32.85710000     -73.38730000
H      -47.31300000     -33.12950000     -72.51110000
H      -47.01760000     -31.86100000     -73.56420000
C      -45.16820000     -32.91910000     -73.02480000
H      -45.02530000     -33.68380000     -72.20700000
H      -44.65860000     -33.31920000     -73.88740000
C      -45.42780000     -33.35340000     -69.76890000
H      -46.30600000     -33.19810000     -70.36110000
H      -44.87120000     -34.10810000     -70.28440000
C      -44.71740000     -32.02620000     -69.86220000
C      -44.11350000     -31.43100000     -68.76400000
C      -44.49060000     -31.34400000     -71.04220000
H      -44.16660000     -31.69900000     -67.72440000
C      -43.75980000     -30.18790000     -70.82440000
C      -44.59270000     -31.61870000     -72.41770000
C      -44.03620000     -30.66260000     -73.20130000
S      -43.39770000     -29.89660000     -69.12740000
S      -43.39110000     -29.30970000     -72.22590000
H      -44.19870000     -30.61820000     -74.26500000
