40
Properties=species:S:1:pos:R:3 #=T CELL(abcABC):=T 1.889726e+02=T 90.00000=T Traj:=T positionsangstrom=T Step:=T 0=T Bead:=T pbc="F F F"
C      -45.61160000     -36.98080000     -73.52940000
C      -46.57810000     -36.14000000     -72.95670000
C      -46.64280000     -35.99750000     -71.52920000
C      -45.74530000     -36.67840000     -70.68830000
C      -44.69790000     -37.38340000     -71.29510000
C      -44.68990000     -37.58080000     -72.68190000
H      -45.51000000     -37.12910000     -74.63460000
H      -47.44780000     -35.45300000     -71.05950000
H      -43.97620000     -37.84960000     -70.63160000
H      -43.98730000     -38.32420000     -73.11720000
C      -45.71230000     -36.57010000     -69.17340000
H      -44.65960000     -36.43940000     -68.84170000
H      -45.99220000     -37.57080000     -68.89110000
C      -47.66110000     -35.55410000     -73.84370000
H      -47.90240000     -36.10470000     -74.79820000
H      -48.55290000     -35.30540000     -73.24540000
S      -46.80900000     -35.41200000     -68.22880000
S      -47.19560000     -33.91800000     -74.56150000
C      -45.75410000     -33.86460000     -68.31590000
H      -46.12780000     -33.13230000     -67.59280000
H      -44.67970000     -34.20720000     -68.12090000
C      -46.65810000     -32.78460000     -73.18050000
H      -47.14060000     -33.05570000     -72.22350000
H      -47.03860000     -31.76910000     -73.56260000
C      -45.14640000     -32.76060000     -73.14890000
H      -44.79730000     -33.68630000     -72.67290000
H      -44.76490000     -32.78820000     -74.18070000
C      -45.67710000     -33.27440000     -69.73370000
H      -46.71330000     -33.07400000     -70.08520000
H      -45.33360000     -34.09290000     -70.51240000
C      -44.81060000     -32.07800000     -69.78890000
C      -44.44480000     -31.31450000     -68.67290000
C      -44.26240000     -31.42300000     -71.07050000
H      -44.59360000     -31.59160000     -67.64560000
C      -43.54110000     -30.20500000     -70.78980000
C      -44.50360000     -31.53210000     -72.47630000
C      -44.12880000     -30.42220000     -73.21280000
S      -43.40040000     -29.90770000     -69.09120000
S      -43.29440000     -29.25750000     -72.21640000
H      -44.36430000     -30.25650000     -74.24540000
