40
Properties=species:S:1:pos:R:3 #=T CELL(abcABC):=T 1.889726e+02=T 90.00000=T Traj:=T positionsangstrom=T Step:=T 0=T Bead:=T pbc="F F F"
C      -45.47450000     -36.07850000     -73.70070000
C      -46.66530000     -35.70710000     -72.96390000
C      -46.72000000     -36.05430000     -71.58090000
C      -45.72990000     -36.80260000     -70.99430000
C      -44.63320000     -37.23110000     -71.77530000
C      -44.46090000     -36.76740000     -73.06370000
H      -45.47010000     -35.84680000     -74.77590000
H      -47.64970000     -35.90360000     -70.98290000
H      -43.81530000     -37.79670000     -71.35080000
H      -43.59640000     -37.10730000     -73.69690000
C      -45.75470000     -37.21800000     -69.56590000
H      -44.80960000     -37.48270000     -69.30010000
H      -46.43720000     -38.08220000     -69.48140000
C      -47.84120000     -34.99810000     -73.59380000
H      -48.42290000     -35.64390000     -74.35140000
H      -48.62260000     -34.66740000     -72.81190000
S      -46.35890000     -35.89200000     -68.41950000
S      -47.41580000     -33.47640000     -74.68390000
C      -45.05280000     -34.65290000     -68.48690000
H      -45.21910000     -34.09890000     -67.62610000
H      -44.05420000     -35.16590000     -68.19840000
C      -46.60830000     -32.27180000     -73.49280000
H      -47.33350000     -32.22960000     -72.65730000
H      -46.58290000     -31.35800000     -74.08100000
C      -45.18920000     -32.75860000     -73.05090000
H      -45.26230000     -33.64680000     -72.52880000
H      -44.58520000     -33.01530000     -73.89660000
C      -45.01280000     -33.82700000     -69.77790000
H      -46.00800000     -33.96000000     -70.20970000
H      -44.38510000     -34.41340000     -70.45750000
C      -44.63120000     -32.32070000     -69.70360000
C      -44.61670000     -31.63660000     -68.51970000
C      -44.37560000     -31.48960000     -70.86110000
H      -44.85860000     -32.07770000     -67.52010000
C      -44.00810000     -30.17610000     -70.49780000
C      -44.45880000     -31.63710000     -72.29550000
C      -43.91940000     -30.57750000     -72.98850000
S      -44.02870000     -29.94730000     -68.79770000
S      -43.40050000     -29.26590000     -71.82670000
H      -43.68270000     -30.62260000     -74.07260000
