40
Properties=species:S:1:pos:R:3 #=T CELL(abcABC):=T 1.889726e+02=T 90.00000=T Traj:=T positionsangstrom=T Step:=T 0=T Bead:=T pbc="F F F"
C      -45.43160000     -36.64750000     -72.87680000
C      -46.68700000     -36.17420000     -72.39120000
C      -46.89670000     -36.18720000     -71.01750000
C      -45.94870000     -36.70390000     -70.10720000
C      -44.70940000     -37.14730000     -70.59090000
C      -44.45360000     -37.12380000     -71.98710000
H      -45.20850000     -36.54450000     -73.91400000
H      -47.83000000     -35.98740000     -70.51580000
H      -44.05740000     -37.63700000     -69.86890000
H      -43.48920000     -37.40830000     -72.46330000
C      -46.19350000     -36.70100000     -68.63500000
H      -45.32470000     -37.06380000     -68.09700000
H      -47.10550000     -37.29400000     -68.33300000
C      -47.70850000     -35.68930000     -73.37740000
H      -47.87540000     -36.62570000     -73.97950000
H      -48.67790000     -35.42650000     -72.94740000
S      -46.62450000     -35.02660000     -68.06810000
S      -47.18980000     -34.39870000     -74.60160000
C      -45.20830000     -34.06110000     -68.59900000
H      -45.04120000     -33.43920000     -67.72030000
H      -44.39290000     -34.76020000     -68.81880000
C      -46.45360000     -32.95850000     -73.78220000
H      -47.02290000     -32.79120000     -72.94570000
H      -46.43120000     -32.15150000     -74.49350000
C      -44.96540000     -33.14550000     -73.35280000
H      -44.80980000     -33.90200000     -72.57680000
H      -44.34870000     -33.41400000     -74.19710000
C      -45.40840000     -33.30570000     -69.91770000
H      -46.52790000     -33.22520000     -69.98460000
H      -45.12080000     -33.94240000     -70.76870000
C      -44.70330000     -31.95270000     -70.05140000
C      -44.42030000     -31.14440000     -69.01340000
C      -44.41390000     -31.33180000     -71.36220000
H      -44.66190000     -31.29800000     -67.94090000
C      -43.87530000     -30.07300000     -71.13820000
C      -44.47390000     -31.72000000     -72.70740000
C      -43.95360000     -30.73360000     -73.55090000
S      -43.74990000     -29.59360000     -69.48150000
S      -43.31770000     -29.32560000     -72.61660000
H      -44.15290000     -30.65770000     -74.60560000
