40
Properties=species:S:1:pos:R:3 #=T CELL(abcABC):=T 1.889726e+02=T 90.00000=T Traj:=T positionsangstrom=T Step:=T 0=T Bead:=T pbc="F F F"
C      -45.40110000     -36.50130000     -72.91150000
C      -46.68890000     -36.03050000     -72.55050000
C      -47.13410000     -36.11090000     -71.19860000
C      -46.23500000     -36.60070000     -70.22780000
C      -44.92510000     -36.97530000     -70.62100000
C      -44.47030000     -36.91990000     -71.97020000
H      -45.24060000     -36.40950000     -73.98860000
H      -48.14590000     -35.79380000     -70.87320000
H      -44.24610000     -37.28940000     -69.89900000
H      -43.60570000     -37.42750000     -72.22640000
C      -46.65860000     -36.70910000     -68.81400000
H      -45.97520000     -37.43670000     -68.31940000
H      -47.67710000     -36.96170000     -68.74080000
C      -47.66660000     -35.62750000     -73.61080000
H      -47.79040000     -36.39910000     -74.38010000
H      -48.53370000     -35.33070000     -73.09990000
S      -46.34780000     -35.06990000     -67.80190000
S      -47.04060000     -34.35560000     -74.73450000
C      -45.07240000     -34.07450000     -68.68380000
H      -44.81720000     -33.36700000     -67.91640000
H      -44.22380000     -34.66450000     -69.04640000
C      -46.45870000     -33.03050000     -73.59770000
H      -46.97570000     -33.05420000     -72.63550000
H      -46.68500000     -32.06920000     -74.05500000
C      -45.02260000     -33.08460000     -73.25660000
H      -44.71420000     -33.79080000     -72.52070000
H      -44.51050000     -33.24350000     -74.17350000
C      -45.67280000     -33.20370000     -69.81750000
H      -46.67000000     -32.80690000     -69.44290000
H      -45.84470000     -33.74760000     -70.79500000
C      -44.78740000     -31.93260000     -70.02950000
C      -44.41890000     -31.21350000     -68.92970000
C      -44.38390000     -31.42580000     -71.30210000
H      -44.69580000     -31.30060000     -67.89310000
C      -43.61300000     -30.30440000     -71.14760000
C      -44.62420000     -31.70590000     -72.69670000
C      -44.25510000     -30.65130000     -73.51750000
S      -43.39030000     -29.85740000     -69.43560000
S      -43.42820000     -29.37890000     -72.62230000
H      -44.32780000     -30.70260000     -74.61950000
