40
Properties=species:S:1:pos:R:3 #=T CELL(abcABC):=T 1.889726e+02=T 90.00000=T Traj:=T positionsangstrom=T Step:=T 0=T Bead:=T pbc="F F F"
C      -45.83160000     -36.94180000     -73.03090000
C      -46.82040000     -36.14070000     -72.39010000
C      -46.80580000     -35.97240000     -70.99120000
C      -45.77410000     -36.55210000     -70.21250000
C      -44.85330000     -37.36680000     -70.92910000
C      -44.85100000     -37.50290000     -72.25680000
H      -45.97470000     -37.13200000     -74.05650000
H      -47.69410000     -35.51280000     -70.54740000
H      -44.03050000     -37.82760000     -70.42140000
H      -44.10090000     -38.18520000     -72.66320000
C      -45.61230000     -36.44260000     -68.73560000
H      -44.54030000     -36.26380000     -68.52500000
H      -45.85080000     -37.37850000     -68.21160000
C      -47.88880000     -35.45870000     -73.24410000
H      -48.49840000     -36.12710000     -73.92560000
H      -48.57650000     -34.90060000     -72.61950000
S      -46.65230000     -35.12680000     -68.01790000
S      -47.13810000     -34.30260000     -74.49860000
C      -45.51480000     -33.63290000     -68.23950000
H      -45.99410000     -32.79910000     -67.72440000
H      -44.48870000     -33.65670000     -67.79800000
C      -46.39200000     -32.94490000     -73.44100000
H      -47.01310000     -32.83170000     -72.56360000
H      -46.56300000     -32.06720000     -73.99900000
C      -44.92870000     -33.24820000     -73.02800000
H      -44.94860000     -34.04300000     -72.30980000
H      -44.29930000     -33.66250000     -73.82480000
C      -45.37340000     -33.21120000     -69.69180000
H      -46.35050000     -33.26110000     -70.18550000
H      -44.74550000     -33.90060000     -70.23620000
C      -44.78230000     -31.80910000     -69.92260000
C      -44.67900000     -30.78650000     -69.02290000
C      -44.30030000     -31.39840000     -71.25240000
H      -45.05130000     -30.77120000     -68.04710000
C      -43.73630000     -30.13100000     -71.22810000
C      -44.22980000     -32.00160000     -72.57820000
C      -43.44150000     -31.25770000     -73.50000000
S      -44.10740000     -29.27580000     -69.83370000
S      -43.02110000     -29.69820000     -72.76460000
H      -43.24560000     -31.38140000     -74.57080000
