40
Properties=species:S:1:pos:R:3 #=T CELL(abcABC):=T 1.889726e+02=T 90.00000=T Traj:=T positionsangstrom=T Step:=T 0=T Bead:=T pbc="F F F"
C      -46.11960000     -29.86000000     -71.48030000
C      -47.34900000     -30.59230000     -71.47960000
C      -47.66050000     -31.41210000     -72.58680000
C      -46.77970000     -31.57420000     -73.65290000
C      -45.51580000     -30.97700000     -73.58270000
C      -45.20960000     -30.11580000     -72.52730000
H      -45.95780000     -29.21160000     -70.62500000
H      -48.53660000     -32.08100000     -72.55040000
H      -44.88100000     -31.08860000     -74.45920000
H      -44.22110000     -29.61100000     -72.52840000
C      -46.98140000     -32.59520000     -74.75300000
H      -46.10790000     -32.64650000     -75.39080000
H      -47.90990000     -32.48160000     -75.29770000
C      -48.29280000     -30.43210000     -70.34060000
H      -48.24330000     -29.35140000     -69.95780000
H      -49.29820000     -30.74860000     -70.68430000
S      -47.32410000     -34.38970000     -74.13300000
S      -47.92360000     -31.60580000     -68.93880000
C      -45.79320000     -35.00290000     -73.51640000
H      -45.24710000     -35.61850000     -74.22280000
H      -45.04840000     -34.10530000     -73.44310000
C      -46.12360000     -31.88650000     -68.97470000
H      -45.99530000     -32.19200000     -67.90700000
H      -45.61150000     -30.90190000     -68.99800000
C      -45.77920000     -33.06160000     -69.90370000
H      -46.54250000     -33.87840000     -69.86830000
H      -45.83580000     -32.66820000     -70.86260000
C      -45.86030000     -35.62970000     -72.10290000
H      -46.37350000     -36.59200000     -72.11100000
H      -46.44570000     -35.00970000     -71.44280000
C      -44.45270000     -35.78000000     -71.59400000
C      -43.62680000     -36.77330000     -71.97550000
C      -43.89150000     -34.89080000     -70.55730000
H      -43.92250000     -37.55180000     -72.68460000
C      -42.60540000     -35.27350000     -70.25840000
C      -44.35450000     -33.76810000     -69.76860000
C      -43.39010000     -33.32180000     -68.87030000
S      -42.06550000     -36.60770000     -71.18050000
S      -41.88090000     -34.29260000     -68.99310000
H      -43.34790000     -32.35970000     -68.25800000
