40
Properties=species:S:1:pos:R:3 #=T CELL(abcABC):=T 1.889726e+02=T 90.00000=T Traj:=T positionsangstrom=T Step:=T 0=T Bead:=T pbc="F F F"
C      -45.77150000     -37.22120000     -72.88730000
C      -46.71180000     -36.39310000     -72.31370000
C      -46.68040000     -36.11960000     -70.95120000
C      -45.75700000     -36.73730000     -70.08950000
C      -44.67110000     -37.39680000     -70.71250000
C      -44.68550000     -37.66270000     -72.07510000
H      -45.71460000     -37.44000000     -73.90430000
H      -47.35000000     -35.31230000     -70.65110000
H      -43.88250000     -37.74790000     -70.06580000
H      -43.87370000     -38.25440000     -72.48200000
C      -45.54370000     -36.25020000     -68.66380000
H      -44.45830000     -36.05550000     -68.41910000
H      -45.88420000     -36.97390000     -67.87030000
C      -47.84310000     -35.80370000     -73.18060000
H      -48.40050000     -36.57080000     -73.75160000
H      -48.58170000     -35.42980000     -72.52720000
S      -46.61960000     -34.83160000     -68.20400000
S      -47.45430000     -34.44730000     -74.35300000
C      -45.85170000     -33.13770000     -68.51100000
H      -46.16120000     -32.43050000     -67.71930000
H      -44.80790000     -33.26360000     -68.30570000
C      -46.79040000     -33.03140000     -73.34010000
H      -47.41880000     -32.82220000     -72.44350000
H      -46.77750000     -32.21640000     -74.05860000
C      -45.33250000     -33.26270000     -72.95040000
H      -45.06670000     -34.03020000     -72.16030000
H      -44.81250000     -33.70740000     -73.84230000
C      -46.14860000     -32.43250000     -69.83160000
H      -47.10480000     -31.87800000     -69.60440000
H      -46.31790000     -33.20360000     -70.58050000
C      -45.10400000     -31.36960000     -70.07210000
C      -44.77770000     -30.32940000     -69.18750000
C      -44.44220000     -31.25790000     -71.34690000
H      -44.94030000     -30.21700000     -68.09360000
C      -43.54360000     -30.14200000     -71.36840000
C      -44.45480000     -32.02100000     -72.59660000
C      -43.40940000     -31.57430000     -73.41050000
S      -43.52070000     -29.30220000     -69.81610000
S      -42.59540000     -30.13720000     -72.86120000
H      -43.29890000     -31.95610000     -74.40010000
