40
Properties=species:S:1:pos:R:3 #=T CELL(abcABC):=T 1.889726e+02=T 90.00000=T Traj:=T positionsangstrom=T Step:=T 0=T Bead:=T pbc="F F F"
C      -45.71190000     -36.66810000     -72.76820000
C      -46.90430000     -36.09680000     -72.25050000
C      -47.17010000     -36.00960000     -70.90700000
C      -46.02860000     -36.19720000     -70.09540000
C      -44.78000000     -36.54150000     -70.56600000
C      -44.65070000     -36.82420000     -71.90900000
H      -45.74040000     -36.85890000     -73.85160000
H      -47.99510000     -35.53990000     -70.44700000
H      -44.05790000     -36.53490000     -69.76890000
H      -43.67620000     -37.30650000     -72.26750000
C      -46.11140000     -36.17720000     -68.59300000
H      -45.20300000     -36.48210000     -68.16650000
H      -46.90760000     -36.85640000     -68.24860000
C      -47.92480000     -35.67060000     -73.19060000
H      -48.32380000     -36.58510000     -73.73960000
H      -48.85560000     -35.32450000     -72.71860000
S      -46.65520000     -34.61270000     -67.78750000
S      -47.36740000     -34.38180000     -74.43510000
C      -45.41730000     -33.38640000     -68.49300000
H      -45.14960000     -32.81310000     -67.61720000
H      -44.50290000     -33.90180000     -68.78640000
C      -46.46260000     -33.09590000     -73.43520000
H      -46.97430000     -32.61220000     -72.67200000
H      -46.27050000     -32.38670000     -74.19340000
C      -45.13190000     -33.57560000     -72.88330000
H      -45.27890000     -34.23720000     -71.95400000
H      -44.64780000     -34.16710000     -73.66070000
C      -46.02950000     -32.60760000     -69.65920000
H      -46.88980000     -32.17640000     -69.17230000
H      -46.25790000     -33.21180000     -70.53670000
C      -45.11450000     -31.49550000     -70.20810000
C      -44.88070000     -30.43120000     -69.45360000
C      -44.37470000     -31.56940000     -71.42440000
H      -45.36900000     -30.26680000     -68.54510000
C      -43.48330000     -30.51240000     -71.51050000
C      -44.24800000     -32.37700000     -72.61160000
C      -43.33570000     -31.98370000     -73.52590000
S      -43.62260000     -29.47390000     -70.15370000
S      -42.44530000     -30.58800000     -72.86210000
H      -43.04770000     -32.48980000     -74.45310000
