40
Properties=species:S:1:pos:R:3 #=T CELL(abcABC):=T 1.889726e+02=T 90.00000=T Traj:=T positionsangstrom=T Step:=T 0=T Bead:=T pbc="F F F"
C      -45.86360000     -37.30360000     -72.96170000
C      -46.80250000     -36.35150000     -72.43690000
C      -46.70520000     -36.00590000     -71.10650000
C      -45.67140000     -36.49110000     -70.26330000
C      -44.74560000     -37.32700000     -70.84060000
C      -44.92170000     -37.87650000     -72.14700000
H      -45.85040000     -37.75150000     -73.97520000
H      -47.37870000     -35.29570000     -70.65670000
H      -43.84300000     -37.63400000     -70.30100000
H      -44.29350000     -38.68150000     -72.49740000
C      -45.39820000     -36.14330000     -68.74990000
H      -44.35660000     -35.74030000     -68.67910000
H      -45.37320000     -37.10170000     -68.23540000
C      -47.77470000     -35.79010000     -73.43190000
H      -48.01940000     -36.59820000     -74.10700000
H      -48.69770000     -35.50820000     -72.85330000
S      -46.53870000     -34.94620000     -67.98110000
S      -47.31140000     -34.34080000     -74.44830000
C      -45.77370000     -33.27450000     -68.36600000
H      -46.22890000     -32.56240000     -67.63770000
H      -44.66450000     -33.37710000     -68.15290000
C      -46.54790000     -33.01940000     -73.32450000
H      -47.09650000     -32.93750000     -72.43090000
H      -46.72400000     -32.14390000     -73.86200000
C      -45.02860000     -33.24940000     -73.01050000
H      -44.74470000     -34.03730000     -72.25440000
H      -44.56390000     -33.51480000     -74.00160000
C      -46.09290000     -32.69640000     -69.75590000
H      -47.10630000     -32.32450000     -69.63660000
H      -46.18540000     -33.47300000     -70.54190000
C      -45.10640000     -31.62160000     -70.02460000
C      -44.81260000     -30.64320000     -69.13130000
C      -44.36840000     -31.35350000     -71.27950000
H      -45.24530000     -30.77800000     -68.15090000
C      -43.66600000     -30.19020000     -71.27420000
C      -44.34510000     -31.97670000     -72.61010000
C      -43.52490000     -31.27970000     -73.50800000
S      -43.62570000     -29.41460000     -69.71450000
S      -42.89060000     -29.80050000     -72.76270000
H      -43.27710000     -31.56220000     -74.58800000
