40
Properties=species:S:1:pos:R:3 #=T CELL(abcABC):=T 1.889726e+02=T 90.00000=T Traj:=T positionsangstrom=T Step:=T 0=T Bead:=T pbc="F F F"
C      -44.89890000     -35.62420000     -70.23130000
C      -46.09930000     -35.89920000     -71.02720000
C      -47.25710000     -35.20300000     -70.68250000
C      -47.29080000     -34.22550000     -69.64870000
C      -46.11370000     -34.00100000     -68.94090000
C      -44.93310000     -34.78650000     -69.12080000
H      -43.95060000     -36.13840000     -70.62210000
H      -48.15990000     -35.55540000     -71.17340000
H      -46.11180000     -33.26040000     -68.16870000
H      -43.99290000     -34.56260000     -68.56220000
C      -48.42090000     -33.21110000     -69.53500000
H      -48.99320000     -33.29090000     -68.55880000
H      -49.19820000     -33.67030000     -70.20660000
C      -46.17860000     -36.84520000     -72.23270000
H      -45.66120000     -37.75450000     -72.17000000
H      -47.21710000     -37.12390000     -72.48240000
S      -48.15460000     -31.43560000     -69.99780000
S      -45.53900000     -36.10650000     -73.87190000
C      -47.49970000     -31.63100000     -71.69190000
H      -47.15880000     -32.66590000     -71.85030000
H      -48.25000000     -31.44720000     -72.43990000
C      -46.40230000     -34.45550000     -73.87180000
H      -47.05850000     -34.33780000     -73.05070000
H      -47.04760000     -34.43770000     -74.79650000
C      -45.30220000     -33.36610000     -73.94820000
H      -44.80710000     -33.58530000     -74.89640000
H      -45.62790000     -32.35830000     -74.01020000
C      -46.30860000     -30.59550000     -71.91580000
H      -46.51220000     -29.60160000     -71.42780000
H      -46.21950000     -30.38420000     -73.01710000
C      -45.00790000     -31.10490000     -71.38390000
C      -44.38830000     -30.40250000     -70.36480000
C      -44.22740000     -32.26150000     -71.79830000
H      -44.78510000     -29.47120000     -69.93490000
C      -43.09130000     -32.41820000     -70.99050000
C      -44.30030000     -33.38380000     -72.81180000
C      -43.12760000     -34.09660000     -72.76450000
S      -42.85600000     -31.12900000     -69.85290000
S      -42.11600000     -33.74550000     -71.40260000
H      -42.92740000     -35.06140000     -73.27800000
