40
Properties=species:S:1:pos:R:3 #=T CELL(abcABC):=T 1.889726e+02=T 90.00000=T Traj:=T positionsangstrom=T Step:=T 0=T Bead:=T pbc="F F F"
C      -46.60340000     -31.08340000     -70.56200000
C      -47.62050000     -31.95220000     -71.09280000
C      -47.41480000     -32.50660000     -72.35200000
C      -46.32060000     -32.13880000     -73.14640000
C      -45.40220000     -31.15210000     -72.64150000
C      -45.52350000     -30.71080000     -71.32070000
H      -46.67520000     -30.74190000     -69.53200000
H      -48.06010000     -33.27210000     -72.81910000
H      -44.59040000     -30.90180000     -73.22520000
H      -44.84400000     -29.95420000     -70.99940000
C      -46.21830000     -32.55660000     -74.53940000
H      -46.00590000     -31.76350000     -75.19940000
H      -47.20610000     -32.94980000     -74.86430000
C      -48.81750000     -32.43320000     -70.32020000
H      -49.16290000     -31.73340000     -69.61030000
H      -49.69410000     -32.62700000     -71.01740000
S      -44.92340000     -33.92990000     -74.87990000
S      -48.61550000     -34.12460000     -69.33560000
C      -45.55050000     -35.15630000     -73.59300000
H      -46.28670000     -34.67660000     -73.01980000
H      -46.08960000     -36.00790000     -74.11680000
C      -47.39540000     -35.14120000     -70.26100000
H      -47.08910000     -34.56230000     -71.20790000
H      -47.95960000     -35.96510000     -70.52210000
C      -46.13080000     -35.54310000     -69.54590000
H      -46.39740000     -35.68490000     -68.51130000
H      -45.84960000     -36.47550000     -70.07880000
C      -44.40420000     -35.71780000     -72.76620000
H      -43.75410000     -36.25480000     -73.48770000
H      -44.82360000     -36.38470000     -71.98800000
C      -43.68690000     -34.62320000     -72.03470000
C      -42.49430000     -34.07470000     -72.42880000
C      -44.10880000     -34.10310000     -70.70170000
H      -41.98800000     -34.37130000     -73.34260000
C      -43.18600000     -33.17620000     -70.23230000
C      -44.99850000     -34.48690000     -69.63430000
C      -44.86060000     -33.64670000     -68.57250000
S      -41.77650000     -32.95360000     -71.22550000
S      -43.44780000     -32.54520000     -68.62540000
H      -45.42440000     -33.64870000     -67.60090000
