40
Properties=species:S:1:pos:R:3 #=T CELL(abcABC):=T 1.889726e+02=T 90.00000=T Traj:=T positionsangstrom=T Step:=T 0=T Bead:=T pbc="F F F"
C      -46.49830000     -31.23270000     -70.60720000
C      -47.53460000     -31.99400000     -71.14760000
C      -47.47290000     -32.44260000     -72.47390000
C      -46.34970000     -32.15800000     -73.27290000
C      -45.32830000     -31.39690000     -72.73720000
C      -45.37390000     -30.89080000     -71.39910000
H      -46.53610000     -30.86130000     -69.60500000
H      -48.36260000     -32.99120000     -72.88290000
H      -44.49750000     -31.08210000     -73.34410000
H      -44.46190000     -30.42850000     -71.00860000
C      -46.29720000     -32.62550000     -74.67610000
H      -45.86310000     -31.81560000     -75.32780000
H      -47.23280000     -32.94440000     -75.01800000
C      -48.78680000     -32.37240000     -70.27920000
H      -48.82870000     -31.49590000     -69.60500000
H      -49.69830000     -32.56170000     -70.84830000
S      -45.04880000     -33.99230000     -74.86840000
S      -48.58140000     -33.90920000     -69.29700000
C      -45.54820000     -35.27530000     -73.58860000
H      -46.36440000     -34.82050000     -72.97350000
H      -45.92910000     -36.10880000     -74.18120000
C      -47.52230000     -35.01910000     -70.28690000
H      -47.29640000     -34.46440000     -71.27210000
H      -48.01400000     -35.97380000     -70.59440000
C      -46.18860000     -35.38710000     -69.59380000
H      -46.25710000     -35.74640000     -68.53890000
H      -45.80520000     -36.24390000     -70.16890000
C      -44.47100000     -35.83950000     -72.65680000
H      -43.65060000     -36.39920000     -73.20620000
H      -44.93970000     -36.62000000     -72.06980000
C      -43.75080000     -34.73060000     -71.87010000
C      -42.58340000     -34.11720000     -72.33570000
C      -43.95490000     -34.23050000     -70.52080000
H      -42.25730000     -34.14670000     -73.34620000
C      -43.02650000     -33.24110000     -70.11930000
C      -45.05060000     -34.36720000     -69.54620000
C      -44.82180000     -33.47980000     -68.51310000
S      -41.91240000     -32.91660000     -71.35590000
S      -43.30100000     -32.51330000     -68.57530000
H      -45.46280000     -33.20480000     -67.62900000
