40
Properties=species:S:1:pos:R:3 #=T CELL(abcABC):=T 1.889726e+02=T 90.00000=T Traj:=T positionsangstrom=T Step:=T 0=T Bead:=T pbc="F F F"
C      -45.04520000     -35.75220000     -70.36440000
C      -46.31740000     -35.89170000     -71.03800000
C      -47.34550000     -35.08780000     -70.63600000
C      -47.18770000     -34.12340000     -69.62800000
C      -45.99050000     -33.96250000     -68.95200000
C      -44.92870000     -34.75800000     -69.35250000
H      -44.29110000     -36.49050000     -70.60300000
H      -48.20540000     -35.06320000     -71.38210000
H      -45.95130000     -33.23810000     -68.10450000
H      -44.06070000     -34.61420000     -68.80970000
C      -48.33950000     -33.26840000     -69.27930000
H      -48.38600000     -33.04680000     -68.21910000
H      -49.27160000     -33.62590000     -69.65930000
C      -46.42290000     -36.86330000     -72.11960000
H      -45.77610000     -37.72660000     -71.83160000
H      -47.45600000     -37.24170000     -72.15570000
S      -47.95480000     -31.53250000     -69.99190000
S      -45.68660000     -36.14780000     -73.67170000
C      -47.36240000     -31.79940000     -71.70380000
H      -46.97440000     -32.84590000     -71.82290000
H      -48.27080000     -31.71450000     -72.36760000
C      -46.48990000     -34.47170000     -73.78670000
H      -47.23050000     -34.41360000     -72.98510000
H      -46.99830000     -34.44790000     -74.77410000
C      -45.44270000     -33.31690000     -73.86380000
H      -44.98140000     -33.43390000     -74.83670000
H      -45.98590000     -32.35180000     -73.85290000
C      -46.27960000     -30.69550000     -71.95440000
H      -46.63740000     -29.68740000     -71.76920000
H      -46.23350000     -30.60340000     -73.04580000
C      -44.94340000     -31.06190000     -71.34430000
C      -44.32280000     -30.37500000     -70.24430000
C      -44.12670000     -32.16990000     -71.83990000
H      -44.63310000     -29.49260000     -69.70540000
C      -42.96070000     -32.29370000     -71.13580000
C      -44.35040000     -33.20410000     -72.82920000
C      -43.32860000     -34.12100000     -72.84080000
S      -42.79440000     -31.14420000     -69.81830000
S      -42.07750000     -33.69330000     -71.70110000
H      -43.17060000     -34.97080000     -73.45660000
