40
Properties=species:S:1:pos:R:3 #=T CELL(abcABC):=T 1.889726e+02=T 90.00000=T Traj:=T positionsangstrom=T Step:=T 0=T Bead:=T pbc="F F F"
C      -44.88240000     -35.77910000     -70.35680000
C      -46.02890000     -35.89860000     -71.18300000
C      -47.10760000     -35.04530000     -70.92150000
C      -47.13090000     -34.17420000     -69.87170000
C      -45.98180000     -34.13620000     -69.11680000
C      -44.87580000     -34.89100000     -69.29090000
H      -43.99470000     -36.33490000     -70.61280000
H      -48.03670000     -35.19930000     -71.54580000
H      -46.02950000     -33.29500000     -68.35650000
H      -44.01510000     -34.68560000     -68.80490000
C      -48.24950000     -33.25730000     -69.54930000
H      -48.57670000     -33.38080000     -68.49980000
H      -49.18280000     -33.59910000     -70.03680000
C      -46.00170000     -36.88190000     -72.32350000
H      -45.50210000     -37.86150000     -72.15580000
H      -47.06510000     -37.16060000     -72.58970000
S      -47.79950000     -31.60650000     -70.02780000
S      -45.22480000     -36.18440000     -73.83940000
C      -47.72200000     -31.39350000     -71.85900000
H      -47.68330000     -32.39140000     -72.37610000
H      -48.52430000     -30.77930000     -72.29120000
C      -46.17460000     -34.52550000     -73.93700000
H      -46.90150000     -34.43530000     -73.18720000
H      -46.80430000     -34.56250000     -74.90420000
C      -45.21120000     -33.37860000     -74.01860000
H      -44.54080000     -33.48310000     -74.88520000
H      -45.80170000     -32.42900000     -74.18980000
C      -46.39660000     -30.61190000     -72.21500000
H      -46.57440000     -29.53220000     -72.01520000
H      -46.27370000     -30.71040000     -73.26720000
C      -45.19020000     -31.04430000     -71.36290000
C      -44.81560000     -30.43820000     -70.24090000
C      -44.36890000     -32.21160000     -71.70260000
H      -45.25290000     -29.55250000     -69.91470000
C      -43.33190000     -32.35220000     -70.80680000
C      -44.22590000     -33.14700000     -72.80590000
C      -43.06220000     -33.85040000     -72.77080000
S      -43.48480000     -31.30470000     -69.35750000
S      -42.20200000     -33.52860000     -71.31360000
H      -42.55430000     -34.60800000     -73.33210000
