40
Properties=species:S:1:pos:R:3 #=T CELL(abcABC):=T 1.889726e+02=T 90.00000=T Traj:=T positionsangstrom=T Step:=T 0=T Bead:=T pbc="F F F"
C      -45.03020000     -35.73980000     -70.19080000
C      -45.98370000     -35.77360000     -71.14880000
C      -47.08810000     -34.91930000     -70.96140000
C      -47.17890000     -34.10130000     -69.87430000
C      -46.07410000     -33.94510000     -68.99380000
C      -44.99390000     -34.76690000     -69.18600000
H      -44.29270000     -36.57470000     -70.25060000
H      -47.86580000     -35.04180000     -71.67220000
H      -46.09660000     -33.17760000     -68.30540000
H      -44.17130000     -34.88690000     -68.38900000
C      -48.45020000     -33.33540000     -69.58480000
H      -48.47320000     -33.32670000     -68.50370000
H      -49.34490000     -33.66820000     -70.12570000
C      -45.96640000     -36.83830000     -72.14780000
H      -45.14270000     -37.52090000     -71.93790000
H      -46.92890000     -37.40830000     -72.23760000
S      -48.21700000     -31.50790000     -69.92230000
S      -45.54970000     -36.18390000     -73.83550000
C      -47.65180000     -31.46090000     -71.74660000
H      -47.64210000     -32.49100000     -72.07300000
H      -48.45750000     -30.81820000     -72.21770000
C      -46.12190000     -34.42200000     -73.96310000
H      -46.73080000     -34.28440000     -73.02140000
H      -46.79720000     -34.35400000     -74.81100000
C      -45.04640000     -33.32610000     -74.01270000
H      -44.35850000     -33.36820000     -74.96060000
H      -45.58010000     -32.34630000     -74.12590000
C      -46.32300000     -30.68320000     -72.02810000
H      -46.60360000     -29.66640000     -71.79350000
H      -46.12080000     -30.75400000     -73.10190000
C      -45.01100000     -31.15770000     -71.39790000
C      -44.49770000     -30.43760000     -70.38630000
C      -44.21160000     -32.24600000     -71.79720000
H      -44.97880000     -29.54820000     -69.92670000
C      -43.12250000     -32.44280000     -70.87910000
C      -44.22640000     -33.28440000     -72.77770000
C      -43.19810000     -34.15520000     -72.73120000
S      -42.99810000     -31.10630000     -69.71250000
S      -42.18630000     -33.81310000     -71.32800000
H      -43.02070000     -34.95130000     -73.49700000
