40
Properties=species:S:1:pos:R:3 #=T CELL(abcABC):=T 1.889726e+02=T 90.00000=T Traj:=T positionsangstrom=T Step:=T 0=T Bead:=T pbc="F F F"
C      -46.73590000     -31.47860000     -70.40010000
C      -47.61370000     -32.39020000     -71.09090000
C      -47.34020000     -32.74420000     -72.45390000
C      -46.28330000     -31.99610000     -73.13140000
C      -45.49110000     -31.05240000     -72.41030000
C      -45.75450000     -30.78010000     -71.08860000
H      -46.92650000     -31.05390000     -69.40620000
H      -48.08420000     -33.31390000     -73.02810000
H      -44.67100000     -30.62400000     -72.96370000
H      -45.14950000     -30.00370000     -70.57810000
C      -45.94060000     -32.31180000     -74.51540000
H      -45.71960000     -31.47110000     -75.09440000
H      -46.70800000     -32.82040000     -75.06370000
C      -48.81620000     -33.02290000     -70.46600000
H      -49.41360000     -32.30890000     -69.92860000
H      -49.59050000     -33.43380000     -71.21990000
S      -44.39880000     -33.30900000     -74.64670000
S      -48.36230000     -34.43080000     -69.34180000
C      -44.98360000     -34.97110000     -74.02320000
H      -45.78780000     -34.64250000     -73.40230000
H      -45.31250000     -35.59670000     -74.84680000
C      -47.57090000     -35.60390000     -70.44870000
H      -47.73960000     -35.35600000     -71.60600000
H      -48.03290000     -36.59110000     -70.25100000
C      -46.05490000     -35.87590000     -70.23450000
H      -45.92450000     -36.61290000     -69.39600000
H      -45.60250000     -36.29780000     -71.14910000
C      -43.88480000     -35.46920000     -73.08700000
H      -42.97140000     -35.74160000     -73.62930000
H      -44.26210000     -36.39130000     -72.53380000
C      -43.43880000     -34.51650000     -71.96520000
C      -42.34730000     -33.69480000     -72.27960000
C      -44.15630000     -34.14060000     -70.74690000
H      -41.68440000     -33.87560000     -73.09370000
C      -43.44980000     -33.10190000     -70.07730000
C      -45.20940000     -34.68340000     -69.81680000
C      -45.34460000     -33.85790000     -68.73590000
S      -42.04940000     -32.52920000     -70.99890000
S      -44.14580000     -32.65490000     -68.49620000
H      -45.99610000     -34.11960000     -67.88110000
