40
Properties=species:S:1:pos:R:3 #=T CELL(abcABC):=T 1.889726e+02=T 90.00000=T Traj:=T positionsangstrom=T Step:=T 0=T Bead:=T pbc="F F F"
C      -47.42000000     -32.23060000     -70.63380000
C      -47.81770000     -33.11050000     -71.68560000
C      -47.22870000     -33.01720000     -72.94120000
C      -46.33760000     -31.99610000     -73.18410000
C      -45.87450000     -31.19580000     -72.15040000
C      -46.42140000     -31.32150000     -70.89160000
H      -47.90230000     -32.42410000     -69.70510000
H      -47.57060000     -33.78900000     -73.65770000
H      -45.03210000     -30.51490000     -72.39680000
H      -46.28410000     -30.59500000     -70.05330000
C      -45.85630000     -31.91690000     -74.59690000
H      -45.73810000     -30.86690000     -75.00600000
H      -46.56440000     -32.32920000     -75.26870000
C      -48.83940000     -34.21940000     -71.33270000
H      -49.48720000     -33.73390000     -70.60660000
H      -49.30650000     -34.71630000     -72.17720000
S      -44.14910000     -32.65360000     -74.82140000
S      -48.00020000     -35.48970000     -70.28450000
C      -44.33360000     -34.35760000     -74.08790000
H      -45.39410000     -34.41070000     -73.88550000
H      -44.12070000     -35.16660000     -74.85270000
C      -46.49320000     -35.96690000     -71.30300000
H      -46.11520000     -35.13920000     -71.99990000
H      -46.77050000     -36.83380000     -71.92420000
C      -45.37940000     -36.19370000     -70.27750000
H      -45.66110000     -36.86170000     -69.46730000
H      -44.52380000     -36.69900000     -70.78520000
C      -43.38470000     -34.65050000     -72.86720000
H      -42.40790000     -34.69600000     -73.36400000
H      -43.59680000     -35.63590000     -72.54400000
C      -43.44590000     -33.59580000     -71.70570000
C      -42.62420000     -32.48670000     -71.71930000
C      -44.16300000     -33.81090000     -70.38930000
H      -42.18830000     -32.11190000     -72.65830000
C      -43.88950000     -32.73040000     -69.52800000
C      -44.93660000     -34.87140000     -69.67550000
C      -45.05940000     -34.58390000     -68.34140000
S      -42.94310000     -31.50180000     -70.26690000
S      -44.37180000     -33.02160000     -67.89190000
H      -45.61550000     -35.19630000     -67.63990000
