40
Properties=species:S:1:pos:R:3 #=T CELL(abcABC):=T 1.889726e+02=T 90.00000=T Traj:=T positionsangstrom=T Step:=T 0=T Bead:=T pbc="F F F"
C      -46.80760000     -31.45750000     -70.42550000
C      -47.68400000     -32.30050000     -71.09050000
C      -47.45090000     -32.57450000     -72.47870000
C      -46.18730000     -32.01770000     -73.01540000
C      -45.35260000     -31.15390000     -72.36550000
C      -45.75680000     -30.84040000     -71.04780000
H      -46.93660000     -31.29320000     -69.37080000
H      -48.05290000     -33.25090000     -73.13420000
H      -44.42410000     -30.69270000     -72.85760000
H      -45.11050000     -30.08260000     -70.52040000
C      -45.90520000     -32.31870000     -74.48920000
H      -45.53840000     -31.33860000     -75.02550000
H      -46.83250000     -32.75830000     -74.99530000
C      -48.88780000     -32.88210000     -70.38450000
H      -49.24900000     -32.07520000     -69.71210000
H      -49.71200000     -33.14360000     -71.02520000
S      -44.49400000     -33.49300000     -74.77750000
S      -48.40560000     -34.27770000     -69.29690000
C      -45.06300000     -34.96230000     -73.88960000
H      -45.98370000     -34.80030000     -73.32510000
H      -45.36270000     -35.72970000     -74.65170000
C      -47.49730000     -35.31330000     -70.48000000
H      -47.27500000     -34.67060000     -71.35710000
H      -48.16530000     -36.03700000     -70.86770000
C      -46.13110000     -35.87640000     -70.07010000
H      -46.15840000     -36.54560000     -69.23270000
H      -45.86130000     -36.43970000     -70.94450000
C      -43.98420000     -35.67370000     -72.94610000
H      -43.25840000     -36.13540000     -73.64240000
H      -44.41240000     -36.48680000     -72.41240000
C      -43.40750000     -34.63130000     -71.97810000
C      -42.20580000     -33.95590000     -72.23430000
C      -44.03890000     -34.23850000     -70.71280000
H      -41.63890000     -33.98070000     -73.15580000
C      -43.46330000     -33.09140000     -70.15690000
C      -45.15930000     -34.68570000     -69.80980000
C      -45.30690000     -33.87100000     -68.69340000
S      -41.93730000     -32.60740000     -71.05480000
S      -44.15410000     -32.51180000     -68.64790000
H      -46.01230000     -34.04920000     -67.88560000
