40
Properties=species:S:1:pos:R:3 #=T CELL(abcABC):=T 1.889726e+02=T 90.00000=T Traj:=T positionsangstrom=T Step:=T 0=T Bead:=T pbc="F F F"
C      -47.30660000     -31.76450000     -70.53730000
C      -47.90180000     -32.61330000     -71.46820000
C      -47.54980000     -32.48600000     -72.84670000
C      -46.38090000     -31.83100000     -73.20750000
C      -45.72770000     -31.07670000     -72.22840000
C      -46.23020000     -30.94100000     -70.91300000
H      -47.57050000     -31.81770000     -69.48900000
H      -48.03070000     -33.12240000     -73.60950000
H      -44.69700000     -30.70460000     -72.34380000
H      -45.80180000     -30.25720000     -70.17860000
C      -45.80330000     -31.86010000     -74.58090000
H      -45.29660000     -30.94180000     -74.84550000
H      -46.51660000     -32.03250000     -75.48680000
C      -48.89260000     -33.64550000     -71.09330000
H      -49.55820000     -33.23500000     -70.37780000
H      -49.37830000     -33.96230000     -72.04100000
S      -44.43890000     -33.13840000     -74.90870000
S      -48.18170000     -35.07360000     -70.04890000
C      -44.91690000     -34.68840000     -73.89810000
H      -45.84000000     -34.41180000     -73.40860000
H      -45.12700000     -35.57550000     -74.59730000
C      -46.80790000     -35.65210000     -71.07910000
H      -46.59420000     -34.78420000     -71.69480000
H      -47.07170000     -36.49730000     -71.65170000
C      -45.69850000     -36.08330000     -70.16400000
H      -46.03760000     -36.58150000     -69.32400000
H      -45.10740000     -36.76260000     -70.73450000
C      -43.76630000     -34.98910000     -72.91550000
H      -42.86780000     -35.21180000     -73.36620000
H      -44.10020000     -35.88880000     -72.34850000
C      -43.45770000     -33.96690000     -71.80830000
C      -42.43500000     -33.05620000     -71.94290000
C      -44.03310000     -33.99650000     -70.51680000
H      -42.03880000     -32.68400000     -72.84910000
C      -43.50670000     -32.99280000     -69.65490000
C      -44.88330000     -34.89080000     -69.74910000
C      -45.00470000     -34.52140000     -68.47120000
S      -42.24380000     -31.99710000     -70.40800000
S      -44.20800000     -32.97630000     -68.04700000
H      -45.60070000     -35.04470000     -67.75060000
