40
Properties=species:S:1:pos:R:3 #=T CELL(abcABC):=T 1.889726e+02=T 90.00000=T Traj:=T positionsangstrom=T Step:=T 0=T Bead:=T pbc="F F F"
C      -47.08810000     -31.61240000     -70.41350000
C      -47.71640000     -32.52330000     -71.36300000
C      -47.27610000     -32.67030000     -72.66220000
C      -46.28450000     -31.77880000     -73.14270000
C      -45.72300000     -30.86560000     -72.22750000
C      -46.05880000     -30.87040000     -70.86240000
H      -47.48490000     -31.39520000     -69.43690000
H      -47.86020000     -33.22980000     -73.39090000
H      -45.02960000     -30.10040000     -72.62830000
H      -45.65070000     -30.12340000     -70.14460000
C      -45.92660000     -31.92020000     -74.59210000
H      -45.56980000     -30.98270000     -75.06830000
H      -46.77880000     -32.32820000     -75.04070000
C      -48.83200000     -33.37900000     -70.79040000
H      -49.59200000     -32.91410000     -70.13710000
H      -49.44950000     -33.65630000     -71.67200000
S      -44.46870000     -33.12830000     -74.87930000
S      -48.25950000     -34.78460000     -69.83280000
C      -44.87350000     -34.69190000     -73.82800000
H      -45.62540000     -34.35880000     -73.15830000
H      -45.32410000     -35.45070000     -74.48820000
C      -47.03490000     -35.66920000     -70.97030000
H      -46.79890000     -35.07280000     -71.90870000
H      -47.41690000     -36.67040000     -71.30090000
C      -45.74830000     -36.05300000     -70.25660000
H      -46.02380000     -36.78570000     -69.44240000
H      -45.11900000     -36.55330000     -70.98360000
C      -43.67480000     -35.28700000     -73.05040000
H      -42.76850000     -35.35930000     -73.68960000
H      -43.93850000     -36.40430000     -72.86220000
C      -43.41240000     -34.30790000     -71.86240000
C      -42.51140000     -33.28930000     -72.06510000
C      -43.90420000     -34.21350000     -70.46620000
H      -41.90400000     -33.00080000     -72.93250000
C      -43.42640000     -33.08120000     -69.74990000
C      -44.97150000     -34.86810000     -69.72570000
C      -45.26660000     -34.30210000     -68.55360000
S      -42.26490000     -32.26880000     -70.70550000
S      -44.25790000     -32.90140000     -68.17820000
H      -46.05250000     -34.48440000     -67.86480000
