40
Properties=species:S:1:pos:R:3 #=T CELL(abcABC):=T 1.889726e+02=T 90.00000=T Traj:=T positionsangstrom=T Step:=T 0=T Bead:=T pbc="F F F"
C      -47.91920000     -32.89440000     -70.98010000
C      -47.86720000     -34.06900000     -71.72240000
C      -47.32010000     -33.96590000     -72.99960000
C      -46.77690000     -32.80560000     -73.53140000
C      -46.70510000     -31.66330000     -72.69740000
C      -47.26820000     -31.73690000     -71.42910000
H      -48.32570000     -32.81900000     -70.00880000
H      -47.28950000     -34.78690000     -73.62390000
H      -46.11260000     -30.78770000     -73.05410000
H      -47.41260000     -30.82420000     -70.81640000
C      -46.11920000     -32.89970000     -74.87100000
H      -46.20170000     -31.94830000     -75.50800000
H      -46.37000000     -33.86080000     -75.38580000
C      -48.41350000     -35.37360000     -71.25330000
H      -49.32840000     -35.25350000     -70.74010000
H      -48.50950000     -36.09590000     -72.08940000
S      -44.23480000     -32.84470000     -74.67700000
S      -47.24740000     -36.00510000     -69.90630000
C      -43.84080000     -34.41520000     -73.63800000
H      -44.80520000     -34.81120000     -73.36360000
H      -43.41970000     -35.14270000     -74.29130000
C      -45.66810000     -36.28950000     -70.80560000
H      -45.65270000     -35.97070000     -71.81610000
H      -45.55990000     -37.39530000     -70.80520000
C      -44.35630000     -35.86160000     -70.10580000
H      -44.25880000     -36.48800000     -69.22900000
H      -43.51180000     -36.10470000     -70.76250000
C      -42.89160000     -34.03790000     -72.51540000
H      -41.84820000     -33.77120000     -72.97330000
H      -42.71050000     -34.85720000     -71.83270000
C      -43.39570000     -32.89600000     -71.65040000
C      -43.06350000     -31.59070000     -71.88860000
C      -43.87620000     -33.18580000     -70.29170000
H      -43.04160000     -31.16730000     -72.86870000
C      -44.00600000     -32.02530000     -69.57010000
C      -44.44200000     -34.35990000     -69.64530000
C      -44.91140000     -34.08760000     -68.38590000
S      -43.63770000     -30.59570000     -70.53760000
S      -44.73740000     -32.35030000     -67.93040000
H      -45.32720000     -34.67430000     -67.62890000
