40
Properties=species:S:1:pos:R:3 #=T CELL(abcABC):=T 1.889726e+02=T 90.00000=T Traj:=T positionsangstrom=T Step:=T 0=T Bead:=T pbc="F F F"
C      -47.77540000     -32.45970000     -70.77090000
C      -47.83140000     -33.58170000     -71.60990000
C      -47.20480000     -33.51200000     -72.85470000
C      -46.54070000     -32.40770000     -73.31470000
C      -46.43760000     -31.29640000     -72.44680000
C      -47.05170000     -31.37580000     -71.18680000
H      -48.33050000     -32.59290000     -69.82240000
H      -47.38600000     -34.33450000     -73.55330000
H      -45.82200000     -30.41850000     -72.61190000
H      -46.86100000     -30.50880000     -70.53850000
C      -45.97600000     -32.37970000     -74.73670000
H      -46.30090000     -31.44610000     -75.17680000
H      -46.48920000     -33.14220000     -75.43650000
C      -48.54890000     -34.82490000     -71.12110000
H      -49.41460000     -34.63800000     -70.47600000
H      -48.97360000     -35.30690000     -71.97330000
S      -44.15590000     -32.59110000     -74.82300000
S      -47.48970000     -35.96250000     -70.09910000
C      -43.72800000     -34.20780000     -73.96900000
H      -44.69870000     -34.55860000     -73.63210000
H      -43.32190000     -34.92460000     -74.72260000
C      -46.02330000     -36.28090000     -71.26140000
H      -46.09660000     -35.46370000     -71.98460000
H      -46.14370000     -37.17840000     -71.81590000
C      -44.76450000     -36.13690000     -70.39600000
H      -44.75830000     -36.83040000     -69.53060000
H      -43.93310000     -36.40030000     -71.02410000
C      -42.86700000     -34.09840000     -72.75200000
H      -41.84170000     -33.79250000     -73.09740000
H      -42.83310000     -35.19450000     -72.46090000
C      -43.31060000     -33.16860000     -71.59920000
C      -42.84250000     -31.85000000     -71.52410000
C      -43.94930000     -33.57450000     -70.34640000
H      -42.47260000     -31.21170000     -72.32910000
C      -44.02930000     -32.46580000     -69.48770000
C      -44.56560000     -34.74360000     -69.79500000
C      -45.21160000     -34.46680000     -68.61970000
S      -43.23320000     -31.02540000     -70.04110000
S      -44.98960000     -32.82860000     -68.11370000
H      -45.83490000     -35.15660000     -68.04920000
