40
Properties=species:S:1:pos:R:3 #=T CELL(abcABC):=T 1.889726e+02=T 90.00000=T Traj:=T positionsangstrom=T Step:=T 0=T Bead:=T pbc="F F F"
C      -48.03180000     -33.34280000     -71.14890000
C      -47.77640000     -34.56050000     -71.88480000
C      -47.14540000     -34.46230000     -73.13420000
C      -46.72650000     -33.24120000     -73.65750000
C      -46.88550000     -32.06020000     -72.94200000
C      -47.67110000     -32.09850000     -71.72150000
H      -48.63320000     -33.33670000     -70.23820000
H      -46.97700000     -35.32890000     -73.78430000
H      -46.53730000     -31.04920000     -73.35240000
H      -47.62740000     -31.25720000     -71.01770000
C      -45.89650000     -33.20800000     -74.89640000
H      -46.28200000     -32.47780000     -75.66050000
H      -45.81610000     -34.19410000     -75.45430000
C      -48.15680000     -35.91390000     -71.28260000
H      -49.05510000     -35.79180000     -70.62450000
H      -48.33600000     -36.70960000     -72.03230000
S      -44.15690000     -32.53650000     -74.49620000
S      -46.80900000     -36.31710000     -69.96800000
C      -43.56860000     -33.99910000     -73.47640000
H      -44.32040000     -34.58750000     -72.95680000
H      -43.06800000     -34.71620000     -74.19630000
C      -45.25540000     -36.09090000     -70.83730000
H      -45.54520000     -35.39180000     -71.62120000
H      -44.92470000     -36.95020000     -71.40740000
C      -43.94480000     -35.55210000     -70.07130000
H      -43.70370000     -36.31210000     -69.25000000
H      -43.08080000     -35.42620000     -70.63340000
C      -42.58980000     -33.57790000     -72.41980000
H      -41.78500000     -33.01400000     -72.94900000
H      -42.09500000     -34.31970000     -71.90390000
C      -43.20480000     -32.63900000     -71.39750000
C      -43.26880000     -31.29080000     -71.63250000
C      -43.93880000     -33.00030000     -70.23870000
H      -42.65920000     -30.74930000     -72.33020000
C      -44.45540000     -31.84340000     -69.59540000
C      -44.28340000     -34.19720000     -69.46960000
C      -45.05060000     -33.97250000     -68.32810000
S      -44.09430000     -30.36960000     -70.43830000
S      -45.29130000     -32.25170000     -68.08590000
H      -45.32250000     -34.71420000     -67.55620000
