40
Properties=species:S:1:pos:R:3 #=T CELL(abcABC):=T 1.889726e+02=T 90.00000=T Traj:=T positionsangstrom=T Step:=T 0=T Bead:=T pbc="F F F"
C      -41.60350000     -32.74790000     -70.53750000
C      -42.98480000     -32.56070000     -70.82150000
C      -43.91260000     -33.51590000     -70.40300000
C      -43.49700000     -34.67890000     -69.75640000
C      -42.09730000     -34.92620000     -69.51410000
C      -41.20620000     -33.88970000     -69.89160000
H      -40.82000000     -32.00600000     -70.73700000
H      -44.89570000     -33.25050000     -70.63460000
H      -41.76270000     -35.77810000     -68.92300000
H      -40.12160000     -34.00480000     -69.65380000
C      -44.57420000     -35.71840000     -69.48000000
H      -45.49890000     -35.19070000     -69.40160000
H      -44.50550000     -36.26490000     -68.59210000
C      -43.37350000     -31.20060000     -71.31420000
H      -44.24100000     -30.72360000     -70.91800000
H      -42.54640000     -30.43710000     -71.20250000
S      -44.67240000     -36.93120000     -70.78230000
S      -43.61950000     -30.96500000     -73.14940000
C      -45.09960000     -35.98050000     -72.33830000
H      -44.40450000     -35.12130000     -72.45000000
H      -44.89470000     -36.49670000     -73.25330000
C      -44.14090000     -32.63770000     -73.71340000
H      -43.74900000     -33.38420000     -73.04270000
H      -43.58120000     -32.82460000     -74.65240000
C      -45.65200000     -32.63370000     -74.03770000
H      -45.76870000     -31.81750000     -74.76060000
H      -46.06610000     -33.52280000     -74.51640000
C      -46.60220000     -35.62270000     -72.43290000
H      -47.11410000     -36.56070000     -72.41370000
H      -46.76020000     -35.22210000     -73.48750000
C      -47.16610000     -34.60880000     -71.53480000
C      -47.74130000     -34.81340000     -70.35980000
C      -47.17400000     -33.14760000     -71.86140000
H      -47.81960000     -35.82060000     -69.84160000
C      -47.84450000     -32.44950000     -70.87280000
C      -46.63360000     -32.23550000     -72.86160000
C      -46.86850000     -30.95550000     -72.59370000
S      -48.37190000     -33.41320000     -69.52190000
S      -47.77610000     -30.68120000     -71.12790000
H      -46.48400000     -30.16770000     -73.20940000
