40
Properties=species:S:1:pos:R:3 #=T CELL(abcABC):=T 1.889726e+02=T 90.00000=T Traj:=T positionsangstrom=T Step:=T 0=T Bead:=T pbc="F F F"
C      -41.76320000     -32.65100000     -70.63690000
C      -43.13160000     -32.50500000     -70.53720000
C      -43.98870000     -33.51620000     -70.04740000
C      -43.43160000     -34.74070000     -69.74180000
C      -41.99170000     -34.93700000     -69.78920000
C      -41.22090000     -33.85810000     -70.18460000
H      -41.09300000     -31.79060000     -70.72930000
H      -45.01830000     -33.38710000     -70.07350000
H      -41.50750000     -35.90810000     -69.61170000
H      -40.08790000     -33.92020000     -70.10550000
C      -44.39940000     -35.79990000     -69.32120000
H      -45.36640000     -35.31650000     -68.98250000
H      -44.07700000     -36.31960000     -68.45260000
C      -43.78770000     -31.19100000     -70.94300000
H      -44.84990000     -31.34850000     -70.94000000
H      -43.59070000     -30.36970000     -70.21140000
S      -44.85970000     -37.02270000     -70.66430000
S      -43.39290000     -30.70020000     -72.67150000
C      -44.83190000     -35.96650000     -72.15240000
H      -44.18940000     -35.03340000     -71.84310000
H      -44.22470000     -36.50270000     -72.91570000
C      -43.91370000     -32.27670000     -73.56990000
H      -43.76280000     -33.09710000     -72.93010000
H      -43.31760000     -32.31080000     -74.46390000
C      -45.38290000     -32.32710000     -73.96190000
H      -45.58040000     -31.49230000     -74.62540000
H      -45.57150000     -33.30990000     -74.39580000
C      -46.22100000     -35.57700000     -72.60430000
H      -46.87480000     -36.41040000     -72.68860000
H      -46.13150000     -35.12620000     -73.63620000
C      -46.95780000     -34.63050000     -71.77740000
C      -47.75310000     -35.06420000     -70.69560000
C      -47.00170000     -33.16840000     -71.89260000
H      -47.90090000     -36.10130000     -70.32380000
C      -47.83940000     -32.57170000     -71.02290000
C      -46.40930000     -32.18050000     -72.86110000
C      -47.01000000     -30.93630000     -72.65690000
S      -48.63670000     -33.63960000     -69.94800000
S      -48.00970000     -30.81330000     -71.31820000
H      -46.82360000     -30.02100000     -73.25500000
