40
Properties=species:S:1:pos:R:3 #=T CELL(abcABC):=T 1.889726e+02=T 90.00000=T Traj:=T positionsangstrom=T Step:=T 0=T Bead:=T pbc="F F F"
C      -41.50850000     -32.71760000     -70.68480000
C      -42.89480000     -32.40270000     -70.88170000
C      -43.84710000     -33.27830000     -70.32750000
C      -43.50880000     -34.54650000     -69.84600000
C      -42.15930000     -34.81830000     -69.62610000
C      -41.17570000     -33.84570000     -70.05730000
H      -40.66270000     -32.03360000     -71.05650000
H      -44.85190000     -33.10900000     -70.55390000
H      -41.78820000     -35.69960000     -69.14700000
H      -40.08940000     -34.02490000     -69.92610000
C      -44.52590000     -35.60120000     -69.36550000
H      -45.53420000     -35.10440000     -69.20970000
H      -44.19910000     -36.15770000     -68.47930000
C      -43.42650000     -31.14150000     -71.48520000
H      -44.40450000     -31.05310000     -71.02870000
H      -42.71880000     -30.33720000     -71.11170000
S      -44.73820000     -36.96170000     -70.70080000
S      -43.46610000     -31.11170000     -73.36730000
C      -45.19810000     -36.02250000     -72.23350000
H      -44.45610000     -35.14690000     -72.26810000
H      -44.87480000     -36.71630000     -73.03470000
C      -44.24570000     -32.67100000     -73.86730000
H      -43.97760000     -33.38420000     -73.11450000
H      -43.74650000     -32.95270000     -74.76940000
C      -45.83130000     -32.72750000     -74.04060000
H      -46.07730000     -32.10240000     -74.95650000
H      -46.03350000     -33.79290000     -74.30930000
C      -46.69060000     -35.65110000     -72.38560000
H      -47.32010000     -36.54870000     -72.27140000
H      -46.88060000     -35.37970000     -73.42580000
C      -47.12800000     -34.59020000     -71.46930000
C      -47.81990000     -34.87710000     -70.33820000
C      -47.12230000     -33.17060000     -71.71890000
H      -47.99580000     -35.86830000     -69.92420000
C      -47.65220000     -32.42610000     -70.67760000
C      -46.62330000     -32.25670000     -72.75680000
C      -46.89700000     -30.93600000     -72.54570000
S      -48.37550000     -33.45020000     -69.46670000
S      -47.78610000     -30.67550000     -71.04620000
H      -46.78210000     -30.20540000     -73.32560000
