40
Properties=species:S:1:pos:R:3 #=T CELL(abcABC):=T 1.889726e+02=T 90.00000=T Traj:=T positionsangstrom=T Step:=T 0=T Bead:=T pbc="F F F"
C      -41.63930000     -32.49350000     -70.81360000
C      -42.98110000     -32.20050000     -70.80380000
C      -43.91240000     -33.24840000     -70.45630000
C      -43.45560000     -34.45570000     -69.89770000
C      -42.08900000     -34.73380000     -70.00460000
C      -41.18350000     -33.80570000     -70.39980000
H      -40.75980000     -31.86650000     -71.12400000
H      -44.96640000     -33.01990000     -70.37170000
H      -41.76550000     -35.74000000     -69.77290000
H      -40.11450000     -34.03560000     -70.49400000
C      -44.43000000     -35.46140000     -69.33710000
H      -45.40730000     -34.97510000     -69.08360000
H      -44.01520000     -35.98770000     -68.45230000
C      -43.53590000     -31.06130000     -71.58480000
H      -44.61180000     -30.99160000     -71.32200000
H      -43.16760000     -30.13300000     -71.29140000
S      -44.77590000     -36.90920000     -70.53390000
S      -43.32360000     -31.31660000     -73.38410000
C      -45.18880000     -36.13270000     -72.10710000
H      -44.67780000     -35.22170000     -72.15430000
H      -44.89860000     -36.83940000     -72.83130000
C      -44.34500000     -32.83210000     -73.77890000
H      -44.23270000     -33.65410000     -72.98860000
H      -43.86580000     -33.27840000     -74.73970000
C      -45.80530000     -32.65210000     -74.00230000
H      -46.01590000     -31.96910000     -74.79920000
H      -46.09080000     -33.59250000     -74.45680000
C      -46.67090000     -35.69900000     -72.35960000
H      -47.36330000     -36.59300000     -72.11730000
H      -46.80450000     -35.30780000     -73.38580000
C      -47.16160000     -34.59120000     -71.47070000
C      -47.86890000     -34.89430000     -70.32920000
C      -47.06860000     -33.21010000     -71.73660000
H      -48.00050000     -35.88440000     -69.94180000
C      -47.67970000     -32.46160000     -70.69670000
C      -46.54830000     -32.26640000     -72.73480000
C      -46.78700000     -30.92480000     -72.43030000
S      -48.46710000     -33.45050000     -69.49580000
S      -47.74130000     -30.74550000     -70.91670000
H      -46.33890000     -30.06680000     -72.96370000
