40
Properties=species:S:1:pos:R:3 #=T CELL(abcABC):=T 1.889726e+02=T 90.00000=T Traj:=T positionsangstrom=T Step:=T 0=T Bead:=T pbc="F F F"
C      -47.96160000     -33.36470000     -71.12960000
C      -47.84010000     -34.56510000     -71.86880000
C      -47.25230000     -34.53200000     -73.13870000
C      -46.76730000     -33.32430000     -73.71350000
C      -46.93400000     -32.12060000     -72.99850000
C      -47.56870000     -32.14960000     -71.73200000
H      -48.32150000     -33.30310000     -70.06050000
H      -47.13480000     -35.45730000     -73.74470000
H      -46.45150000     -31.26660000     -73.41190000
H      -47.88490000     -31.24140000     -71.20460000
C      -45.94890000     -33.32340000     -75.00430000
H      -46.30710000     -32.47220000     -75.59440000
H      -46.06350000     -34.23710000     -75.53200000
C      -48.05510000     -35.95560000     -71.25230000
H      -49.02480000     -36.11880000     -70.71270000
H      -47.93230000     -36.59340000     -72.11620000
S      -44.19030000     -32.76490000     -74.68900000
S      -46.70930000     -36.35870000     -70.09210000
C      -43.51900000     -34.03020000     -73.57940000
H      -44.45680000     -34.50820000     -73.25660000
H      -42.89900000     -34.67960000     -74.17280000
C      -45.00620000     -36.15300000     -70.92430000
H      -45.05470000     -35.47170000     -71.73960000
H      -44.69890000     -37.19170000     -71.25620000
C      -44.09300000     -35.59200000     -69.88480000
H      -44.11600000     -36.23470000     -69.03290000
H      -43.06280000     -35.70810000     -70.30560000
C      -42.67570000     -33.45430000     -72.39840000
H      -41.77410000     -32.94720000     -72.74010000
H      -42.34440000     -34.44890000     -71.93880000
C      -43.36620000     -32.58880000     -71.39390000
C      -43.24270000     -31.22290000     -71.55520000
C      -44.03450000     -32.90490000     -70.15980000
H      -42.89160000     -30.73790000     -72.44060000
C      -44.40920000     -31.71980000     -69.44790000
C      -44.38050000     -34.11330000     -69.44850000
C      -45.06120000     -33.84330000     -68.32110000
S      -44.04870000     -30.25850000     -70.26360000
S      -45.30180000     -32.09920000     -68.01250000
H      -45.40660000     -34.60980000     -67.70670000
