40
Properties=species:S:1:pos:R:3 #=T CELL(abcABC):=T 1.889726e+02=T 90.00000=T Traj:=T positionsangstrom=T Step:=T 0=T Bead:=T pbc="F F F"
C      -48.02430000     -33.22850000     -71.31200000
C      -47.61180000     -34.42410000     -71.94930000
C      -46.68860000     -34.37740000     -73.07560000
C      -46.31620000     -33.12890000     -73.52250000
C      -46.76650000     -31.91470000     -72.91580000
C      -47.64810000     -31.99910000     -71.84260000
H      -48.76540000     -33.27960000     -70.54050000
H      -46.40580000     -35.30460000     -73.66520000
H      -46.61620000     -30.93950000     -73.36350000
H      -48.14670000     -31.08650000     -71.45960000
C      -45.49030000     -33.06100000     -74.84040000
H      -45.73170000     -32.26300000     -75.54740000
H      -45.55110000     -34.02820000     -75.33230000
C      -47.84870000     -35.85620000     -71.53440000
H      -48.88160000     -36.14630000     -71.36250000
H      -47.53120000     -36.52930000     -72.34200000
S      -43.67540000     -32.87970000     -74.50460000
S      -46.89240000     -36.49000000     -70.06230000
C      -43.02350000     -34.18480000     -73.28050000
H      -43.86970000     -34.88210000     -73.03930000
H      -42.32500000     -34.87940000     -73.75620000
C      -45.13650000     -36.40140000     -70.65970000
H      -45.19030000     -36.07440000     -71.67320000
H      -44.79360000     -37.49790000     -70.67840000
C      -44.18460000     -35.55740000     -69.79860000
H      -44.15990000     -36.13190000     -68.84820000
H      -43.16300000     -35.73450000     -70.17540000
C      -42.43730000     -33.51390000     -72.02720000
H      -41.50080000     -32.92510000     -72.33380000
H      -42.12330000     -34.32720000     -71.35170000
C      -43.36210000     -32.52790000     -71.33850000
C      -43.35440000     -31.16170000     -71.54600000
C      -44.23510000     -32.92200000     -70.26160000
H      -42.67500000     -30.62380000     -72.20850000
C      -44.75140000     -31.79750000     -69.58610000
C      -44.68140000     -34.13060000     -69.61280000
C      -45.57790000     -33.89490000     -68.59310000
S      -44.23800000     -30.26940000     -70.30460000
S      -45.88570000     -32.17140000     -68.32760000
H      -46.00520000     -34.54000000     -67.80330000
