40
Properties=species:S:1:pos:R:3 #=T CELL(abcABC):=T 1.889726e+02=T 90.00000=T Traj:=T positionsangstrom=T Step:=T 0=T Bead:=T pbc="F F F"
C      -46.05980000     -29.87210000     -71.79270000
C      -47.19280000     -30.68080000     -71.73840000
C      -47.39360000     -31.67480000     -72.65450000
C      -46.59120000     -31.84210000     -73.80690000
C      -45.41090000     -30.98120000     -73.86260000
C      -45.16700000     -30.07480000     -72.86380000
H      -45.94280000     -29.10510000     -71.06390000
H      -48.27100000     -32.30370000     -72.63260000
H      -44.62520000     -31.09060000     -74.63970000
H      -44.24970000     -29.50570000     -72.98380000
C      -46.86910000     -32.84120000     -74.86310000
H      -45.95930000     -32.82420000     -75.43390000
H      -47.69770000     -32.56220000     -75.57200000
C      -48.26020000     -30.46150000     -70.62640000
H      -48.02720000     -29.86830000     -69.78190000
H      -49.21260000     -30.18190000     -71.06560000
S      -46.99880000     -34.55420000     -74.16280000
S      -48.52640000     -32.09020000     -69.78250000
C      -45.35340000     -34.56680000     -73.33510000
H      -44.48720000     -34.51620000     -74.01510000
H      -45.19130000     -33.68960000     -72.70850000
C      -46.86170000     -32.58220000     -69.17590000
H      -46.88460000     -32.63430000     -68.06600000
H      -46.27200000     -31.64090000     -69.36450000
C      -46.17580000     -33.63380000     -69.99880000
H      -46.61970000     -34.61450000     -69.78630000
H      -46.32900000     -33.37840000     -71.07780000
C      -45.33630000     -35.73060000     -72.26780000
H      -45.25410000     -36.70520000     -72.73060000
H      -46.27400000     -35.82630000     -71.71830000
C      -44.15870000     -35.74830000     -71.31420000
C      -43.09180000     -36.56040000     -71.51120000
C      -43.90340000     -34.79560000     -70.28740000
H      -43.20680000     -37.38280000     -72.26900000
C      -42.63060000     -34.91580000     -69.80270000
C      -44.61610000     -33.64440000     -69.76480000
C      -43.94150000     -33.00320000     -68.76980000
S      -41.69100000     -36.25810000     -70.48890000
S      -42.29400000     -33.68560000     -68.56280000
H      -44.16530000     -32.16300000     -68.19290000
