40
Properties=species:S:1:pos:R:3 #=T CELL(abcABC):=T 1.889726e+02=T 90.00000=T Traj:=T positionsangstrom=T Step:=T 0=T Bead:=T pbc="F F F"
C      -47.93390000     -33.23280000     -71.18120000
C      -47.39080000     -34.42650000     -71.78930000
C      -46.59570000     -34.33210000     -72.95600000
C      -46.23500000     -33.03280000     -73.46920000
C      -46.85420000     -31.91160000     -72.92630000
C      -47.74190000     -32.03750000     -71.83410000
H      -48.41870000     -33.15830000     -70.20800000
H      -46.23970000     -35.24270000     -73.38350000
H      -46.52060000     -30.88120000     -73.25740000
H      -48.14160000     -31.16630000     -71.36810000
C      -45.42520000     -32.91590000     -74.72970000
H      -45.81130000     -32.01500000     -75.23830000
H      -45.68860000     -33.78670000     -75.35040000
C      -47.93210000     -35.71930000     -71.26030000
H      -48.86670000     -35.50810000     -70.73440000
H      -48.15880000     -36.38250000     -72.11200000
S      -43.55590000     -32.73080000     -74.60310000
S      -46.88400000     -36.49000000     -69.92020000
C      -43.22420000     -34.15070000     -73.42370000
H      -44.21890000     -34.40620000     -73.14430000
H      -42.67360000     -34.96540000     -73.93060000
C      -45.22040000     -36.44750000     -70.72650000
H      -45.42860000     -35.97210000     -71.67400000
H      -44.73810000     -37.38960000     -70.93260000
C      -44.22110000     -35.57490000     -69.96340000
H      -43.77140000     -36.03790000     -69.12100000
H      -43.38920000     -35.41830000     -70.65760000
C      -42.50880000     -33.69280000     -72.12760000
H      -41.53140000     -33.28620000     -72.35960000
H      -42.22120000     -34.51210000     -71.49350000
C      -43.33080000     -32.66940000     -71.34590000
C      -43.27860000     -31.28540000     -71.55870000
C      -44.30350000     -33.01730000     -70.30760000
H      -42.58940000     -30.82350000     -72.22040000
C      -44.84460000     -31.86740000     -69.75130000
C      -44.63150000     -34.18030000     -69.51660000
C      -45.38320000     -33.83820000     -68.39510000
S      -44.44180000     -30.39960000     -70.56400000
S      -45.81430000     -32.14880000     -68.29170000
H      -45.87270000     -34.57160000     -67.75180000
