40
Properties=species:S:1:pos:R:3 #=T CELL(abcABC):=T 1.889726e+02=T 90.00000=T Traj:=T positionsangstrom=T Step:=T 0=T Bead:=T pbc="F F F"
C      -47.85800000     -33.52550000     -71.15690000
C      -47.55530000     -34.62810000     -71.92880000
C      -46.98210000     -34.48890000     -73.19790000
C      -46.61200000     -33.24950000     -73.72030000
C      -46.87830000     -32.08380000     -72.95250000
C      -47.51930000     -32.25780000     -71.73160000
H      -48.23670000     -33.59110000     -70.11460000
H      -46.78530000     -35.40460000     -73.77180000
H      -46.66150000     -31.12570000     -73.36670000
H      -47.81480000     -31.37450000     -71.20180000
C      -45.96050000     -33.15460000     -75.04720000
H      -46.40360000     -32.43000000     -75.72340000
H      -46.09490000     -34.13950000     -75.58560000
C      -47.98390000     -35.97160000     -71.36230000
H      -48.94330000     -35.88490000     -70.90510000
H      -48.07870000     -36.79050000     -72.07990000
S      -44.13220000     -32.79840000     -74.82710000
S      -46.84390000     -36.58090000     -69.97680000
C      -43.70450000     -34.02140000     -73.52980000
H      -44.56590000     -34.53870000     -73.04810000
H      -43.08360000     -34.85520000     -73.92850000
C      -45.12380000     -36.18960000     -70.85550000
H      -45.26120000     -35.51240000     -71.73790000
H      -44.78030000     -37.13920000     -71.24590000
C      -44.14180000     -35.54720000     -69.95950000
H      -44.05960000     -36.06290000     -69.00000000
H      -43.06680000     -35.72590000     -70.39450000
C      -42.77870000     -33.37360000     -72.44210000
H      -42.03290000     -32.81760000     -72.96040000
H      -42.22050000     -34.11890000     -71.82970000
C      -43.49410000     -32.47150000     -71.44270000
C      -43.19950000     -31.15100000     -71.45070000
C      -44.14850000     -32.83920000     -70.19540000
H      -42.78730000     -30.68540000     -72.35420000
C      -44.51330000     -31.68580000     -69.47840000
C      -44.48760000     -34.06670000     -69.53710000
C      -45.07230000     -33.80820000     -68.36100000
S      -44.00160000     -30.17670000     -70.16800000
S      -45.29850000     -32.10470000     -67.93560000
H      -45.34130000     -34.61020000     -67.73710000
