40
Properties=species:S:1:pos:R:3 #=T CELL(abcABC):=T 1.889726e+02=T 90.00000=T Traj:=T positionsangstrom=T Step:=T 0=T Bead:=T pbc="F F F"
C      -47.91470000     -33.39360000     -71.39260000
C      -47.62800000     -34.57820000     -72.10850000
C      -46.85080000     -34.52470000     -73.29510000
C      -46.26720000     -33.26290000     -73.68570000
C      -46.59510000     -32.08210000     -72.99490000
C      -47.41330000     -32.17880000     -71.88610000
H      -48.51370000     -33.38700000     -70.49760000
H      -46.65390000     -35.42850000     -73.85890000
H      -46.12030000     -31.10790000     -73.20280000
H      -47.54150000     -31.20240000     -71.35270000
C      -45.44650000     -33.19910000     -74.98440000
H      -45.77820000     -32.26360000     -75.48880000
H      -45.53260000     -34.03530000     -75.69570000
C      -48.11070000     -35.90060000     -71.53810000
H      -49.06060000     -35.75020000     -70.93930000
H      -48.26870000     -36.69000000     -72.29720000
S      -43.60310000     -32.80130000     -74.52130000
S      -46.89130000     -36.45080000     -70.13430000
C      -43.32350000     -33.90590000     -73.10560000
H      -44.29530000     -34.14640000     -72.64510000
H      -42.90600000     -34.82480000     -73.48710000
C      -45.22950000     -36.23290000     -70.80700000
H      -45.28020000     -35.61860000     -71.71930000
H      -44.84650000     -37.18180000     -71.15210000
C      -44.28710000     -35.54460000     -69.83450000
H      -44.31220000     -36.03380000     -68.84480000
H      -43.24850000     -35.65440000     -70.16930000
C      -42.40230000     -33.41220000     -72.01050000
H      -41.66770000     -32.77420000     -72.43630000
H      -41.89420000     -34.21270000     -71.51740000
C      -43.13840000     -32.55650000     -71.06750000
C      -43.05510000     -31.20760000     -71.20550000
C      -44.18880000     -32.87050000     -70.07350000
H      -42.34030000     -30.67600000     -71.86990000
C      -44.81710000     -31.74130000     -69.49880000
C      -44.68780000     -34.10080000     -69.47610000
C      -45.60320000     -33.86600000     -68.50920000
S      -44.21920000     -30.26390000     -70.27290000
S      -46.01280000     -32.16710000     -68.36410000
H      -46.20440000     -34.58430000     -67.99110000
