40
Properties=species:S:1:pos:R:3 #=T CELL(abcABC):=T 1.889726e+02=T 90.00000=T Traj:=T positionsangstrom=T Step:=T 0=T Bead:=T pbc="F F F"
C      -47.81960000     -33.12650000     -72.10050000
C      -47.34890000     -34.30990000     -72.69790000
C      -46.18590000     -34.15550000     -73.47710000
C      -45.53930000     -32.85410000     -73.65540000
C      -46.11320000     -31.70250000     -73.03270000
C      -47.24770000     -31.82510000     -72.23050000
H      -48.71390000     -33.28140000     -71.48570000
H      -45.83330000     -34.92890000     -74.11460000
H      -45.61130000     -30.68040000     -73.02290000
H      -47.75670000     -31.02870000     -71.74880000
C      -44.42990000     -32.78810000     -74.71650000
H      -44.38060000     -31.89390000     -75.38220000
H      -44.46680000     -33.69660000     -75.39750000
C      -47.94510000     -35.67250000     -72.30040000
H      -49.04350000     -35.74010000     -72.38170000
H      -47.51690000     -36.47970000     -72.92570000
S      -42.70500000     -32.89090000     -73.84440000
S      -47.59730000     -36.08950000     -70.51710000
C      -42.92250000     -34.37450000     -72.72410000
H      -43.95260000     -34.60590000     -72.76400000
H      -42.39900000     -35.23740000     -73.09710000
C      -45.78720000     -36.51210000     -70.56220000
H      -45.37730000     -36.20920000     -71.50240000
H      -45.71750000     -37.63290000     -70.42520000
C      -45.06970000     -35.71280000     -69.46670000
H      -45.27540000     -36.16520000     -68.43230000
H      -43.95410000     -35.92580000     -69.44870000
C      -42.47160000     -34.09040000     -71.30480000
H      -41.43380000     -33.70420000     -71.44680000
H      -42.43990000     -35.03230000     -70.72530000
C      -43.27500000     -32.97060000     -70.68990000
C      -42.80910000     -31.68060000     -70.72920000
C      -44.50950000     -33.13070000     -69.96230000
H      -41.86300000     -31.37670000     -71.06390000
C      -45.12540000     -31.87930000     -69.73320000
C      -45.35250000     -34.23080000     -69.40580000
C      -46.49830000     -33.75440000     -68.77600000
S      -44.07890000     -30.55470000     -70.13960000
S      -46.58140000     -31.99480000     -68.80810000
H      -47.27030000     -34.29690000     -68.18680000
