40
Properties=species:S:1:pos:R:3 #=T CELL(abcABC):=T 1.889726e+02=T 90.00000=T Traj:=T positionsangstrom=T Step:=T 0=T Bead:=T pbc="F F F"
C      -47.56160000     -32.73790000     -72.28270000
C      -47.19780000     -33.85340000     -73.00860000
C      -46.06000000     -33.86350000     -73.78670000
C      -45.13520000     -32.76500000     -73.79750000
C      -45.51620000     -31.64180000     -73.04360000
C      -46.77670000     -31.60220000     -72.33210000
H      -48.50070000     -32.63050000     -71.70960000
H      -45.66420000     -34.80230000     -74.19290000
H      -44.91910000     -30.69820000     -73.06720000
H      -47.10440000     -30.63700000     -71.82560000
C      -43.82500000     -32.92340000     -74.47680000
H      -43.45580000     -32.10600000     -75.03890000
H      -43.84580000     -33.79280000     -75.12680000
C      -48.08720000     -35.09560000     -72.98010000
H      -49.13300000     -34.93790000     -72.92230000
H      -47.75910000     -35.69270000     -73.88050000
S      -42.45260000     -33.04940000     -73.24650000
S      -47.66800000     -36.10210000     -71.45400000
C      -42.75440000     -34.54720000     -72.15020000
H      -43.81710000     -34.86360000     -72.21900000
H      -42.08540000     -35.38370000     -72.45040000
C      -45.86240000     -36.09600000     -71.25590000
H      -45.41920000     -35.46940000     -71.93290000
H      -45.42860000     -37.10570000     -71.54670000
C      -45.36160000     -35.81930000     -69.84360000
H      -45.77090000     -36.52580000     -69.17720000
H      -44.28840000     -36.01230000     -69.82280000
C      -42.37830000     -34.11420000     -70.67410000
H      -41.38340000     -33.70040000     -70.57190000
H      -42.50280000     -35.01120000     -70.03960000
C      -43.36620000     -33.07020000     -70.19440000
C      -43.11770000     -31.75580000     -70.34320000
C      -44.70670000     -33.23210000     -69.68990000
H      -42.14130000     -31.38410000     -70.70330000
C      -45.26510000     -32.05080000     -69.32680000
C      -45.56760000     -34.39450000     -69.46840000
C      -46.82810000     -34.02260000     -68.99940000
S      -44.35540000     -30.66660000     -69.79180000
S      -46.96090000     -32.23470000     -68.74220000
H      -47.60550000     -34.64570000     -68.63800000
