40
Properties=species:S:1:pos:R:3 #=T CELL(abcABC):=T 1.889726e+02=T 90.00000=T Traj:=T positionsangstrom=T Step:=T 0=T Bead:=T pbc="F F F"
C      -47.94710000     -33.25810000     -71.92890000
C      -47.55500000     -34.46550000     -72.50730000
C      -46.48640000     -34.32690000     -73.50920000
C      -45.85600000     -33.11900000     -73.76970000
C      -46.30440000     -31.93080000     -73.14030000
C      -47.36940000     -32.05890000     -72.25510000
H      -48.59310000     -33.25840000     -71.04910000
H      -46.17810000     -35.34600000     -73.95450000
H      -45.74100000     -30.98660000     -73.31880000
H      -47.79260000     -31.18080000     -71.76550000
C      -44.68990000     -33.07570000     -74.75480000
H      -44.82370000     -32.15280000     -75.35790000
H      -44.83460000     -33.97940000     -75.40010000
C      -48.08200000     -35.85890000     -72.06350000
H      -49.15730000     -35.92590000     -72.15850000
H      -47.72090000     -36.57460000     -72.79990000
S      -43.03360000     -32.86270000     -73.87640000
S      -47.38600000     -36.26320000     -70.49820000
C      -42.98040000     -34.22300000     -72.76440000
H      -43.93430000     -34.56190000     -72.59040000
H      -42.42860000     -35.00380000     -73.16940000
C      -45.59660000     -36.18820000     -70.82540000
H      -45.54240000     -35.45460000     -71.65260000
H      -45.13140000     -37.09620000     -71.12510000
C      -44.82110000     -35.59260000     -69.63620000
H      -45.14460000     -36.17790000     -68.71860000
H      -43.75170000     -35.83540000     -69.85720000
C      -42.42460000     -33.93340000     -71.37500000
H      -41.37170000     -33.76010000     -71.45850000
H      -42.57690000     -34.86300000     -70.83630000
C      -43.11450000     -32.81320000     -70.67490000
C      -42.89310000     -31.50350000     -70.96010000
C      -44.35550000     -33.03570000     -69.89860000
H      -42.02780000     -31.17020000     -71.58550000
C      -44.94560000     -31.76610000     -69.59240000
C      -45.12420000     -34.14080000     -69.36560000
C      -46.23580000     -33.67860000     -68.66190000
S      -44.08290000     -30.39630000     -70.28240000
S      -46.31360000     -31.94480000     -68.56410000
H      -46.97600000     -34.22410000     -68.14900000
