40
Properties=species:S:1:pos:R:3 #=T CELL(abcABC):=T 1.889726e+02=T 90.00000=T Traj:=T positionsangstrom=T Step:=T 0=T Bead:=T pbc="F F F"
C      -47.99320000     -33.32130000     -71.93540000
C      -47.48950000     -34.56100000     -72.46820000
C      -46.42470000     -34.43340000     -73.38000000
C      -45.88010000     -33.20020000     -73.82520000
C      -46.30400000     -32.05830000     -73.09740000
C      -47.38250000     -32.12280000     -72.19610000
H      -48.94320000     -33.29720000     -71.43550000
H      -45.96560000     -35.27550000     -73.83460000
H      -45.86310000     -31.10830000     -73.15310000
H      -47.87730000     -31.25590000     -71.76920000
C      -44.80750000     -33.23990000     -74.81860000
H      -44.97230000     -32.57970000     -75.66010000
H      -44.70370000     -34.24420000     -75.19540000
C      -48.16620000     -35.82570000     -71.99400000
H      -49.19820000     -35.46990000     -71.67920000
H      -48.24050000     -36.67010000     -72.68370000
S      -43.09650000     -32.86380000     -74.15500000
S      -47.26250000     -36.54380000     -70.48240000
C      -42.91450000     -34.30120000     -72.92940000
H      -43.91500000     -34.87710000     -72.94960000
H      -42.16290000     -34.98370000     -73.44220000
C      -45.43820000     -36.26160000     -70.59460000
H      -45.29370000     -35.73100000     -71.57290000
H      -44.96740000     -37.27400000     -70.68240000
C      -44.77250000     -35.50200000     -69.53590000
H      -44.85070000     -35.94500000     -68.53830000
H      -43.69130000     -35.51170000     -69.63030000
C      -42.40840000     -33.71160000     -71.56860000
H      -41.46170000     -33.17200000     -71.75240000
H      -42.24820000     -34.51010000     -70.82120000
C      -43.28620000     -32.66010000     -70.90960000
C      -43.03250000     -31.34650000     -71.09690000
C      -44.47610000     -32.93600000     -70.03200000
H      -42.16250000     -30.84960000     -71.47250000
C      -45.01040000     -31.71960000     -69.57750000
C      -45.11010000     -33.99840000     -69.39420000
C      -46.13450000     -33.62990000     -68.51030000
S      -44.11090000     -30.27990000     -70.11570000
S      -46.26910000     -31.85070000     -68.42740000
H      -46.68830000     -34.19570000     -67.81150000
