40
Properties=species:S:1:pos:R:3 #=T CELL(abcABC):=T 1.889726e+02=T 90.00000=T Traj:=T positionsangstrom=T Step:=T 0=T Bead:=T pbc="F F F"
C      -47.26670000     -32.65670000     -72.62850000
C      -46.93420000     -33.83610000     -73.24050000
C      -45.73290000     -34.01560000     -73.93220000
C      -44.75170000     -33.01460000     -73.88460000
C      -45.08530000     -31.81770000     -73.13490000
C      -46.33360000     -31.62090000     -72.50220000
H      -48.26520000     -32.56900000     -72.21650000
H      -45.46190000     -35.02940000     -74.27870000
H      -44.34190000     -31.06600000     -73.13800000
H      -46.48400000     -30.64990000     -72.00480000
C      -43.46290000     -33.10430000     -74.62050000
H      -43.36670000     -32.24420000     -75.26670000
H      -43.34670000     -33.91510000     -75.27480000
C      -47.90390000     -34.99840000     -73.18080000
H      -48.87380000     -34.59800000     -73.57170000
H      -47.56080000     -35.69220000     -73.93900000
S      -42.08600000     -32.84220000     -73.40830000
S      -48.04460000     -35.85160000     -71.58060000
C      -42.49720000     -34.28170000     -72.28470000
H      -43.39390000     -34.68090000     -72.69350000
H      -41.73710000     -35.11920000     -72.47770000
C      -46.26330000     -36.27740000     -71.41650000
H      -45.71070000     -35.74130000     -72.25110000
H      -46.21700000     -37.31240000     -71.40260000
C      -45.58920000     -35.87650000     -70.06570000
H      -46.09530000     -36.55110000     -69.36790000
H      -44.57570000     -36.11740000     -70.00510000
C      -42.61690000     -34.00640000     -70.74480000
H      -41.63670000     -33.68220000     -70.36650000
H      -42.79340000     -34.94670000     -70.18070000
C      -43.62200000     -32.98270000     -70.27810000
C      -43.26290000     -31.73460000     -69.94550000
C      -44.94820000     -33.30220000     -69.70360000
H      -42.26490000     -31.41680000     -69.99070000
C      -45.51510000     -32.15730000     -69.07200000
C      -45.86040000     -34.39740000     -69.63400000
C      -47.08180000     -34.08620000     -68.96670000
S      -44.42140000     -30.73900000     -69.09560000
S      -47.15080000     -32.38030000     -68.48820000
H      -47.85170000     -34.76760000     -68.64590000
