40
Properties=species:S:1:pos:R:3 #=T CELL(abcABC):=T 1.889726e+02=T 90.00000=T Traj:=T positionsangstrom=T Step:=T 0=T Bead:=T pbc="F F F"
C      -47.13630000     -32.37060000     -72.83050000
C      -46.76370000     -33.54900000     -73.54800000
C      -45.42820000     -33.65410000     -74.02150000
C      -44.43890000     -32.71590000     -73.62040000
C      -44.82420000     -31.63450000     -72.87830000
C      -46.15500000     -31.41850000     -72.58220000
H      -48.11200000     -32.29660000     -72.35080000
H      -45.09020000     -34.49750000     -74.51540000
H      -44.02650000     -30.92170000     -72.44330000
H      -46.41150000     -30.44550000     -72.09860000
C      -43.03390000     -32.75970000     -73.98720000
H      -42.63760000     -31.85730000     -74.48270000
H      -42.84540000     -33.47410000     -74.77460000
C      -47.75240000     -34.69660000     -73.71450000
H      -48.68890000     -34.26160000     -73.98590000
H      -47.56960000     -35.27990000     -74.63580000
S      -41.85750000     -33.20870000     -72.56430000
S      -48.08410000     -35.70970000     -72.13920000
C      -42.75890000     -34.66700000     -71.81800000
H      -43.78510000     -34.66650000     -72.22600000
H      -42.14050000     -35.61090000     -72.03410000
C      -46.31450000     -36.13210000     -71.61780000
H      -45.60180000     -35.48950000     -72.21280000
H      -46.12300000     -37.22900000     -71.75210000
C      -46.05890000     -35.87390000     -70.11710000
H      -46.80160000     -36.49940000     -69.56870000
H      -45.06990000     -36.32660000     -69.88180000
C      -42.87740000     -34.56840000     -70.25870000
H      -41.86180000     -34.65280000     -69.83070000
H      -43.42330000     -35.45600000     -69.94790000
C      -43.69950000     -33.40100000     -69.90380000
C      -43.18720000     -32.13060000     -69.82720000
C      -45.11190000     -33.47610000     -69.53390000
H      -42.11730000     -31.92220000     -70.01700000
C      -45.60180000     -32.25390000     -69.20850000
C      -46.20720000     -34.43090000     -69.67350000
C      -47.43180000     -33.89560000     -69.28660000
S      -44.40560000     -30.92150000     -69.38130000
S      -47.31340000     -32.19680000     -68.82180000
H      -48.38420000     -34.51730000     -69.32370000
