40
Properties=species:S:1:pos:R:3 #=T CELL(abcABC):=T 1.889726e+02=T 90.00000=T Traj:=T positionsangstrom=T Step:=T 0=T Bead:=T pbc="F F F"
C      -47.11730000     -32.53720000     -72.85830000
C      -46.86630000     -33.71060000     -73.57230000
C      -45.60470000     -33.92140000     -74.19650000
C      -44.61840000     -32.91560000     -74.00030000
C      -44.93670000     -31.85120000     -73.15730000
C      -46.17390000     -31.59550000     -72.64070000
H      -48.06420000     -32.46410000     -72.35650000
H      -45.37340000     -34.87190000     -74.74160000
H      -44.14870000     -31.10470000     -72.95220000
H      -46.37390000     -30.59360000     -72.26110000
C      -43.16330000     -33.28740000     -74.42810000
H      -42.67910000     -32.58610000     -75.09540000
H      -43.24290000     -34.30730000     -74.82480000
C      -47.95070000     -34.69650000     -73.76550000
H      -48.92170000     -34.26970000     -73.97110000
H      -47.79770000     -35.44630000     -74.50970000
S      -42.07660000     -33.36680000     -72.97090000
S      -48.24240000     -35.49910000     -72.07550000
C      -42.86990000     -34.59830000     -71.88890000
H      -43.90770000     -34.59900000     -72.17400000
H      -42.53480000     -35.60210000     -72.13200000
C      -46.53830000     -35.97480000     -71.62890000
H      -45.96290000     -35.42690000     -72.36120000
H      -46.39580000     -37.07030000     -71.83750000
C      -46.03200000     -35.74300000     -70.18790000
H      -46.61240000     -36.36990000     -69.59260000
H      -45.00490000     -36.05290000     -70.10090000
C      -42.66310000     -34.35680000     -70.34460000
H      -41.63070000     -34.24170000     -70.08090000
H      -42.99070000     -35.29920000     -69.93910000
C      -43.48650000     -33.26140000     -69.77280000
C      -42.92430000     -32.00460000     -69.39570000
C      -44.92960000     -33.37280000     -69.47750000
H      -41.90680000     -31.62290000     -69.45180000
C      -45.42410000     -32.09980000     -69.02600000
C      -46.06360000     -34.28420000     -69.73580000
C      -47.21520000     -33.71140000     -69.32240000
S      -44.24960000     -30.90800000     -68.77910000
S      -47.13610000     -32.13100000     -68.66420000
H      -48.16440000     -34.16570000     -69.38000000
