40
Properties=species:S:1:pos:R:3 #=T CELL(abcABC):=T 1.889726e+02=T 90.00000=T Traj:=T positionsangstrom=T Step:=T 0=T Bead:=T pbc="F F F"
C      -47.20260000     -32.30980000     -72.89090000
C      -46.96920000     -33.53370000     -73.51080000
C      -45.71720000     -33.76450000     -74.08590000
C      -44.63250000     -32.86800000     -73.86300000
C      -44.94060000     -31.64550000     -73.17630000
C      -46.24430000     -31.40090000     -72.76410000
H      -48.15080000     -32.05480000     -72.32520000
H      -45.53720000     -34.59880000     -74.78230000
H      -44.10910000     -30.93510000     -72.74430000
H      -46.55780000     -30.54700000     -72.23320000
C      -43.30430000     -33.18490000     -74.38060000
H      -42.88280000     -32.30880000     -74.95320000
H      -43.35680000     -34.06140000     -75.04370000
C      -47.94650000     -34.61780000     -73.46610000
H      -48.98010000     -34.19350000     -73.55750000
H      -47.71520000     -35.28770000     -74.36320000
S      -42.00880000     -33.52570000     -73.04170000
S      -47.95650000     -35.44790000     -71.79910000
C      -42.99370000     -34.64010000     -71.95970000
H      -44.09200000     -34.46120000     -72.26650000
H      -42.76510000     -35.69200000     -72.09090000
C      -46.24580000     -36.10720000     -71.59970000
H      -45.67390000     -35.63810000     -72.45410000
H      -46.20490000     -37.14380000     -71.76840000
C      -45.70380000     -35.80940000     -70.17740000
H      -46.29490000     -36.53090000     -69.60560000
H      -44.61540000     -35.90330000     -70.05090000
C      -42.75340000     -34.34140000     -70.41400000
H      -41.70220000     -34.11450000     -70.26700000
H      -42.85570000     -35.28940000     -69.80200000
C      -43.58930000     -33.24700000     -69.90980000
C      -43.10450000     -31.96580000     -69.55370000
C      -45.02030000     -33.34630000     -69.65880000
H      -42.04820000     -31.68020000     -69.54900000
C      -45.54420000     -32.10480000     -69.22350000
C      -46.03120000     -34.38350000     -69.72480000
C      -47.23140000     -33.97490000     -69.26110000
S      -44.27580000     -30.98230000     -68.77830000
S      -47.24260000     -32.23720000     -68.80590000
H      -48.08800000     -34.54680000     -69.33650000
