40
Properties=species:S:1:pos:R:3 #=T CELL(abcABC):=T 1.889726e+02=T 90.00000=T Traj:=T positionsangstrom=T Step:=T 0=T Bead:=T pbc="F F F"
C      -41.46050000     -31.77850000     -69.71880000
C      -42.61280000     -31.61570000     -70.49210000
C      -43.83530000     -32.26790000     -70.06620000
C      -43.82580000     -33.17960000     -68.98350000
C      -42.65840000     -33.30130000     -68.26690000
C      -41.45810000     -32.59710000     -68.60310000
H      -40.57200000     -31.31670000     -70.08370000
H      -44.72720000     -32.10290000     -70.68470000
H      -42.61940000     -34.07780000     -67.49960000
H      -40.65130000     -32.83560000     -67.96300000
C      -44.93240000     -34.18430000     -68.69270000
H      -45.83180000     -33.89400000     -69.27660000
H      -45.15910000     -34.15030000     -67.56010000
C      -42.66590000     -30.76700000     -71.86510000
H      -42.63780000     -29.71300000     -71.62840000
H      -41.66300000     -30.84440000     -72.32770000
S      -44.36000000     -35.80700000     -69.17210000
S      -43.94600000     -31.13740000     -73.13250000
C      -44.26350000     -36.00240000     -70.97400000
H      -43.85000000     -35.06250000     -71.38160000
H      -43.64510000     -36.83370000     -71.12640000
C      -43.70970000     -32.94260000     -73.39600000
H      -43.59880000     -33.44060000     -72.40610000
H      -42.79410000     -33.20750000     -73.95970000
C      -44.96010000     -33.53750000     -74.07150000
H      -44.97360000     -33.18970000     -75.10560000
H      -44.82820000     -34.58960000     -74.30410000
C      -45.59550000     -36.18720000     -71.70680000
H      -45.99190000     -37.10510000     -71.38680000
H      -45.48190000     -36.32310000     -72.77790000
C      -46.71330000     -35.15580000     -71.59770000
C      -47.80420000     -35.45980000     -70.82370000
C      -46.92020000     -33.89210000     -72.28380000
H      -47.88490000     -36.33660000     -70.18910000
C      -48.12930000     -33.29590000     -71.93980000
C      -46.27540000     -33.21520000     -73.45000000
C      -46.99470000     -32.12110000     -73.80970000
S      -49.07650000     -34.21490000     -70.85510000
S      -48.55300000     -31.95720000     -73.00240000
H      -46.54480000     -31.37710000     -74.44400000
