40
Properties=species:S:1:pos:R:3 #=T CELL(abcABC):=T 1.889726e+02=T 90.00000=T Traj:=T positionsangstrom=T Step:=T 0=T Bead:=T pbc="F F F"
C      -47.17550000     -32.55480000     -72.99360000
C      -46.80550000     -33.76260000     -73.63340000
C      -45.52460000     -33.86740000     -74.13150000
C      -44.54420000     -32.88610000     -73.77210000
C      -44.91060000     -31.76890000     -73.00330000
C      -46.22150000     -31.61730000     -72.60010000
H      -48.19620000     -32.47290000     -72.66130000
H      -45.19500000     -34.79700000     -74.56320000
H      -44.34010000     -31.01710000     -72.62940000
H      -46.55100000     -30.86890000     -71.89740000
C      -43.10070000     -32.99920000     -74.16880000
H      -42.70560000     -32.05950000     -74.52000000
H      -42.82970000     -33.73620000     -74.94720000
C      -47.78690000     -34.84800000     -73.86990000
H      -48.69150000     -34.51080000     -74.38920000
H      -47.37630000     -35.56220000     -74.59630000
S      -41.98060000     -33.24110000     -72.69530000
S      -48.08770000     -35.69490000     -72.24750000
C      -42.87240000     -34.72770000     -71.93710000
H      -43.91430000     -34.91510000     -72.33240000
H      -42.24560000     -35.56540000     -72.26860000
C      -46.39270000     -36.02410000     -71.60360000
H      -45.60650000     -35.39910000     -72.12360000
H      -46.13620000     -37.10200000     -71.69360000
C      -46.33340000     -35.62250000     -70.11810000
H      -47.24540000     -35.95910000     -69.70810000
H      -45.52020000     -36.13630000     -69.67040000
C      -42.98740000     -34.61900000     -70.39720000
H      -41.98030000     -34.66290000     -69.90250000
H      -43.51890000     -35.51970000     -70.11800000
C      -43.69230000     -33.37710000     -69.89590000
C      -42.98790000     -32.26430000     -69.50600000
C      -45.10700000     -33.25420000     -69.66260000
H      -41.92250000     -32.01960000     -69.48940000
C      -45.44360000     -32.03900000     -69.08180000
C      -46.25430000     -34.14540000     -69.73730000
C      -47.40890000     -33.54990000     -69.35780000
S      -44.09090000     -31.01500000     -68.87660000
S      -47.15810000     -31.94540000     -68.67360000
H      -48.48960000     -33.99800000     -69.30800000
