40
Properties=species:S:1:pos:R:3 #=T CELL(abcABC):=T 1.889726e+02=T 90.00000=T Traj:=T positionsangstrom=T Step:=T 0=T Bead:=T pbc="F F F"
C      -47.14870000     -32.59610000     -72.84330000
C      -46.90780000     -33.69900000     -73.66610000
C      -45.61340000     -33.88530000     -74.25590000
C      -44.59660000     -32.98750000     -73.92270000
C      -44.90280000     -31.88490000     -73.16480000
C      -46.11700000     -31.65660000     -72.63260000
H      -48.13030000     -32.37020000     -72.53860000
H      -45.50320000     -34.69340000     -74.93380000
H      -44.18670000     -31.16170000     -72.94440000
H      -46.12560000     -30.85020000     -71.94520000
C      -43.14490000     -33.23630000     -74.29820000
H      -42.72030000     -32.51460000     -75.04080000
H      -43.13970000     -34.19880000     -74.83580000
C      -47.88890000     -34.80110000     -73.80030000
H      -48.87200000     -34.43420000     -74.17270000
H      -47.50170000     -35.57740000     -74.50540000
S      -42.01630000     -33.28310000     -72.76870000
S      -48.21510000     -35.65950000     -72.22380000
C      -42.83750000     -34.69550000     -71.88040000
H      -43.85350000     -34.85350000     -72.07030000
H      -42.24180000     -35.63190000     -72.11880000
C      -46.48660000     -35.95410000     -71.65400000
H      -45.84340000     -35.54810000     -72.38640000
H      -46.30220000     -37.05420000     -71.67550000
C      -46.09220000     -35.51240000     -70.26660000
H      -46.64230000     -36.14000000     -69.45820000
H      -45.05590000     -35.94700000     -70.17490000
C      -42.76580000     -34.44330000     -70.38730000
H      -41.70330000     -34.26650000     -69.99750000
H      -43.15200000     -35.27870000     -69.85480000
C      -43.63260000     -33.32360000     -69.89550000
C      -42.97090000     -32.16740000     -69.48710000
C      -45.07940000     -33.25570000     -69.61540000
H      -41.96690000     -31.76490000     -69.50240000
C      -45.39800000     -32.05790000     -68.94130000
C      -46.21580000     -34.11990000     -69.73930000
C      -47.37490000     -33.60710000     -69.30500000
S      -44.06060000     -30.98010000     -68.75990000
S      -47.20260000     -31.98570000     -68.61240000
H      -48.35830000     -34.15300000     -69.33210000
