40
Properties=species:S:1:pos:R:3 #=T CELL(abcABC):=T 1.889726e+02=T 90.00000=T Traj:=T positionsangstrom=T Step:=T 0=T Bead:=T pbc="F F F"
C      -47.54360000     -32.54870000     -72.51550000
C      -47.18850000     -33.66540000     -73.29840000
C      -46.05030000     -33.61400000     -74.14930000
C      -45.14560000     -32.57390000     -73.99140000
C      -45.52010000     -31.38560000     -73.18660000
C      -46.69030000     -31.38120000     -72.47750000
H      -48.47060000     -32.60720000     -71.82550000
H      -45.91990000     -34.55100000     -74.74590000
H      -44.78220000     -30.56210000     -73.02100000
H      -47.01910000     -30.42810000     -72.01830000
C      -43.78620000     -32.68500000     -74.58330000
H      -43.58280000     -31.62150000     -74.91220000
H      -43.67600000     -33.43990000     -75.43020000
C      -48.11710000     -34.81220000     -73.26840000
H      -49.11600000     -34.30030000     -73.41570000
H      -47.88910000     -35.38520000     -74.10280000
S      -42.47880000     -32.92760000     -73.31440000
S      -48.03290000     -35.67630000     -71.66870000
C      -42.84740000     -34.53180000     -72.41720000
H      -43.86610000     -34.81150000     -72.63250000
H      -42.18510000     -35.29880000     -72.87850000
C      -46.18210000     -35.94750000     -71.52940000
H      -45.49810000     -35.23920000     -72.05290000
H      -45.90080000     -36.89540000     -71.92260000
C      -45.65390000     -35.97110000     -70.04660000
H      -46.25580000     -36.65380000     -69.48040000
H      -44.61770000     -36.35080000     -70.05870000
C      -42.62390000     -34.47120000     -70.90090000
H      -41.54590000     -34.36210000     -70.67720000
H      -42.75730000     -35.47720000     -70.57890000
C      -43.31650000     -33.42910000     -70.07330000
C      -42.81920000     -32.17110000     -69.84390000
C      -44.70390000     -33.52030000     -69.58830000
H      -41.77180000     -32.05210000     -70.04510000
C      -45.14560000     -32.31010000     -69.11150000
C      -45.70470000     -34.57530000     -69.51150000
C      -46.84390000     -34.09610000     -68.87120000
S      -43.88040000     -31.06300000     -68.97100000
S      -46.79670000     -32.36670000     -68.51880000
H      -47.71890000     -34.73970000     -68.92120000
