40
Properties=species:S:1:pos:R:3 #=T CELL(abcABC):=T 1.889726e+02=T 90.00000=T Traj:=T positionsangstrom=T Step:=T 0=T Bead:=T pbc="F F F"
C      -47.22620000     -32.09550000     -72.58460000
C      -46.90060000     -33.35670000     -73.04710000
C      -45.65320000     -33.58530000     -73.65120000
C      -44.64790000     -32.53800000     -73.73160000
C      -45.04620000     -31.26860000     -73.29750000
C      -46.28800000     -31.05880000     -72.63320000
H      -48.10290000     -31.88120000     -72.02010000
H      -45.29420000     -34.48770000     -74.06450000
H      -44.49510000     -30.33410000     -73.30360000
H      -46.45290000     -30.01200000     -72.23200000
C      -43.31980000     -32.86120000     -74.33650000
H      -42.81290000     -32.04140000     -74.86740000
H      -43.40390000     -33.80680000     -74.95100000
C      -47.99030000     -34.41670000     -73.15210000
H      -49.03600000     -34.05380000     -73.10530000
H      -47.97240000     -35.02290000     -74.11390000
S      -41.96980000     -33.35690000     -73.14300000
S      -47.99740000     -35.84390000     -71.83390000
C      -42.80820000     -34.60780000     -72.08670000
H      -43.88520000     -34.64520000     -72.21830000
H      -42.50820000     -35.68520000     -72.30300000
C      -46.25060000     -36.30390000     -71.62930000
H      -45.55000000     -35.88070000     -72.30630000
H      -46.12560000     -37.40350000     -71.74480000
C      -45.65950000     -36.01160000     -70.23300000
H      -46.06710000     -36.75610000     -69.51860000
H      -44.61190000     -36.27080000     -70.24510000
C      -42.68280000     -34.34150000     -70.59920000
H      -41.59830000     -34.06440000     -70.37030000
H      -42.82910000     -35.31590000     -70.12380000
C      -43.59950000     -33.28930000     -70.02080000
C      -43.20470000     -31.95780000     -69.86450000
C      -44.96650000     -33.49020000     -69.59620000
H      -42.22600000     -31.66020000     -70.17030000
C      -45.53240000     -32.32560000     -69.15870000
C      -45.95810000     -34.58520000     -69.64060000
C      -47.18520000     -34.14050000     -69.19650000
S      -44.43400000     -30.92240000     -69.21760000
S      -47.19960000     -32.47420000     -68.68090000
H      -47.97580000     -34.85700000     -69.03570000
