40
Properties=species:S:1:pos:R:3 #=T CELL(abcABC):=T 1.889726e+02=T 90.00000=T Traj:=T positionsangstrom=T Step:=T 0=T Bead:=T pbc="F F F"
C      -47.25990000     -32.17450000     -72.41030000
C      -46.90200000     -33.33210000     -73.12450000
C      -45.64460000     -33.50430000     -73.63790000
C      -44.70930000     -32.47630000     -73.60620000
C      -45.00030000     -31.31230000     -72.87920000
C      -46.29450000     -31.15850000     -72.34440000
H      -48.23490000     -32.04950000     -71.98270000
H      -45.45100000     -34.32740000     -74.37470000
H      -44.25260000     -30.60410000     -72.61670000
H      -46.25170000     -30.13260000     -71.95100000
C      -43.37180000     -32.75860000     -74.23010000
H      -43.01340000     -31.84570000     -74.66050000
H      -43.45280000     -33.52660000     -74.98760000
C      -47.95150000     -34.43360000     -73.14470000
H      -48.83190000     -33.91850000     -72.88080000
H      -47.92840000     -34.79030000     -74.15030000
S      -42.05850000     -33.13900000     -72.95040000
S      -47.90550000     -35.85090000     -71.95010000
C      -42.68960000     -34.64220000     -72.09690000
H      -43.68740000     -34.73890000     -72.43070000
H      -42.16110000     -35.53890000     -72.45300000
C      -46.07280000     -36.24540000     -71.64940000
H      -45.47710000     -35.61780000     -72.28280000
H      -45.98240000     -37.24530000     -72.07830000
C      -45.70120000     -36.10050000     -70.14080000
H      -46.32260000     -36.67610000     -69.45970000
H      -44.64520000     -36.43510000     -70.06900000
C      -42.71750000     -34.37480000     -70.66940000
H      -41.78190000     -34.17160000     -70.23010000
H      -42.92810000     -35.38330000     -70.26210000
C      -43.66710000     -33.30060000     -70.27040000
C      -43.23070000     -31.98620000     -70.09860000
C      -45.01500000     -33.52330000     -69.86780000
H      -42.24140000     -31.68730000     -70.36070000
C      -45.57650000     -32.35760000     -69.39410000
C      -45.94860000     -34.63120000     -69.70750000
C      -47.15230000     -34.23310000     -69.15020000
S      -44.50430000     -30.97640000     -69.35840000
S      -47.14760000     -32.53310000     -68.65080000
H      -47.99710000     -34.89840000     -68.81500000
