40
Properties=species:S:1:pos:R:3 #=T CELL(abcABC):=T 1.889726e+02=T 90.00000=T Traj:=T positionsangstrom=T Step:=T 0=T Bead:=T pbc="F F F"
C      -47.51640000     -32.48390000     -72.52220000
C      -47.17690000     -33.61160000     -73.34010000
C      -46.01820000     -33.68720000     -74.03300000
C      -45.14320000     -32.59470000     -73.90600000
C      -45.38810000     -31.52670000     -73.02720000
C      -46.67490000     -31.39720000     -72.43940000
H      -48.54260000     -32.45460000     -72.07210000
H      -45.79960000     -34.50290000     -74.66370000
H      -44.69640000     -30.69440000     -72.84740000
H      -46.95070000     -30.60340000     -71.76880000
C      -43.74060000     -32.72990000     -74.52600000
H      -43.57160000     -32.07510000     -75.32360000
H      -43.66220000     -33.71980000     -74.98230000
C      -48.21530000     -34.74610000     -73.22770000
H      -49.20530000     -34.30790000     -73.24320000
H      -48.25950000     -35.57000000     -74.03370000
S      -42.41980000     -32.70210000     -73.25080000
S      -48.22470000     -35.61660000     -71.53390000
C      -42.86840000     -34.29770000     -72.51000000
H      -43.97840000     -34.39490000     -72.54140000
H      -42.43460000     -35.20530000     -72.98120000
C      -46.49470000     -36.21920000     -71.58580000
H      -46.04800000     -35.69970000     -72.38820000
H      -46.50230000     -37.32400000     -71.87540000
C      -45.78160000     -35.98950000     -70.22650000
H      -46.12580000     -36.70750000     -69.48120000
H      -44.69430000     -36.25020000     -70.38760000
C      -42.48310000     -34.42870000     -71.09550000
H      -41.40070000     -34.24440000     -70.95020000
H      -42.75510000     -35.42660000     -70.78920000
C      -43.33170000     -33.45970000     -70.22790000
C      -42.83400000     -32.17340000     -70.07510000
C      -44.66150000     -33.56370000     -69.68730000
H      -41.98120000     -31.77090000     -70.63730000
C      -44.98830000     -32.39980000     -69.00720000
C      -45.73120000     -34.59790000     -69.64160000
C      -46.89330000     -34.06490000     -69.04390000
S      -43.90360000     -31.12050000     -69.08750000
S      -46.56080000     -32.46330000     -68.28460000
H      -47.81120000     -34.62630000     -68.77150000
