40
Properties=species:S:1:pos:R:3 #=T CELL(abcABC):=T 1.889726e+02=T 90.00000=T Traj:=T positionsangstrom=T Step:=T 0=T Bead:=T pbc="F F F"
C      -47.59990000     -32.57610000     -72.65370000
C      -47.05040000     -33.73580000     -73.28180000
C      -45.70610000     -33.69710000     -73.81460000
C      -45.01270000     -32.46330000     -73.86390000
C      -45.49650000     -31.40600000     -73.07840000
C      -46.79430000     -31.38740000     -72.52280000
H      -48.60810000     -32.64370000     -72.33530000
H      -45.23830000     -34.57890000     -74.23690000
H      -44.84200000     -30.51740000     -73.14560000
H      -47.04410000     -30.50840000     -71.92020000
C      -43.57320000     -32.43330000     -74.39030000
H      -43.34180000     -31.34640000     -74.66420000
H      -43.45930000     -32.99210000     -75.34710000
C      -47.94080000     -34.93630000     -73.33020000
H      -48.95600000     -34.75910000     -73.55420000
H      -47.58380000     -35.59020000     -74.18390000
S      -42.15450000     -32.99860000     -73.20210000
S      -47.98240000     -35.99830000     -71.81250000
C      -42.94070000     -34.40850000     -72.30480000
H      -44.02490000     -34.51790000     -72.43890000
H      -42.47000000     -35.30720000     -72.69630000
C      -46.23980000     -36.33370000     -71.46970000
H      -45.61930000     -35.84940000     -72.17170000
H      -46.04220000     -37.40890000     -71.61570000
C      -45.78290000     -35.93280000     -70.06700000
H      -46.46500000     -36.48070000     -69.40110000
H      -44.83110000     -36.43000000     -69.81800000
C      -42.62440000     -34.35740000     -70.78940000
H      -41.53560000     -34.21090000     -70.63890000
H      -42.98520000     -35.34960000     -70.39980000
C      -43.38940000     -33.25170000     -70.13660000
C      -42.91400000     -31.99050000     -69.93800000
C      -44.77050000     -33.45370000     -69.64040000
H      -42.06050000     -31.61980000     -70.47180000
C      -45.25450000     -32.27500000     -69.04510000
C      -45.85110000     -34.41730000     -69.68020000
C      -47.03770000     -33.93870000     -69.21140000
S      -44.05300000     -30.96000000     -68.98860000
S      -46.95220000     -32.33720000     -68.54230000
H      -47.80960000     -34.65300000     -69.10750000
