40
Properties=species:S:1:pos:R:3 #=T CELL(abcABC):=T 1.889726e+02=T 90.00000=T Traj:=T positionsangstrom=T Step:=T 0=T Bead:=T pbc="F F F"
C      -47.67180000     -32.17140000     -71.67910000
C      -47.59290000     -33.18150000     -72.64280000
C      -46.60030000     -33.17180000     -73.61450000
C      -45.68780000     -32.03440000     -73.71550000
C      -45.78280000     -31.05040000     -72.68160000
C      -46.71530000     -31.15730000     -71.65850000
H      -48.45820000     -32.24010000     -70.93700000
H      -46.50520000     -33.82440000     -74.48710000
H      -45.10900000     -30.24330000     -72.60430000
H      -46.74320000     -30.57620000     -70.76200000
C      -44.71480000     -32.04660000     -74.81270000
H      -44.48810000     -31.08500000     -75.17350000
H      -44.94630000     -32.80670000     -75.53010000
C      -48.54830000     -34.30080000     -72.52390000
H      -49.51560000     -33.89220000     -72.22780000
H      -48.74140000     -34.90620000     -73.40410000
S      -42.99270000     -32.61900000     -74.08250000
S      -48.08450000     -35.49740000     -71.20390000
C      -43.43020000     -34.30010000     -73.41850000
H      -44.47470000     -34.41940000     -73.57650000
H      -42.94980000     -35.03430000     -74.02580000
C      -46.33050000     -35.96050000     -71.59350000
H      -45.82890000     -35.23940000     -72.27010000
H      -46.47600000     -36.91440000     -72.13290000
C      -45.62220000     -36.17580000     -70.21960000
H      -46.16470000     -36.86840000     -69.59580000
H      -44.66510000     -36.80350000     -70.28780000
C      -42.81810000     -34.63680000     -72.06910000
H      -41.73790000     -34.40360000     -72.25340000
H      -42.93640000     -35.72670000     -71.99440000
C      -43.28880000     -33.77770000     -70.83670000
C      -42.82860000     -32.49010000     -70.80650000
C      -44.34320000     -33.96540000     -69.76320000
H      -42.05460000     -32.03480000     -71.44050000
C      -44.42420000     -32.84460000     -68.98240000
C      -45.40510000     -34.90990000     -69.47550000
C      -46.25820000     -34.38390000     -68.50710000
S      -43.29550000     -31.54850000     -69.41460000
S      -45.79610000     -32.88460000     -67.83880000
H      -47.24780000     -34.80720000     -68.21610000
