40
Properties=species:S:1:pos:R:3 #=T CELL(abcABC):=T 1.889726e+02=T 90.00000=T Traj:=T positionsangstrom=T Step:=T 0=T Bead:=T pbc="F F F"
C      -47.39190000     -32.27400000     -71.56900000
C      -47.34260000     -33.24630000     -72.55480000
C      -46.32080000     -33.17090000     -73.48540000
C      -45.38510000     -32.09260000     -73.43150000
C      -45.49450000     -31.08860000     -72.44960000
C      -46.49180000     -31.23480000     -71.47600000
H      -48.20550000     -32.34510000     -70.87370000
H      -46.24040000     -33.99110000     -74.18920000
H      -44.83980000     -30.27800000     -72.39780000
H      -46.56380000     -30.42550000     -70.70460000
C      -44.28880000     -32.17930000     -74.47490000
H      -43.99140000     -31.17180000     -74.82650000
H      -44.53610000     -32.70080000     -75.43200000
C      -48.29100000     -34.40020000     -72.60120000
H      -49.37370000     -34.09880000     -72.76590000
H      -47.97000000     -35.05550000     -73.41350000
S      -42.62880000     -32.87200000     -73.95330000
S      -48.40890000     -35.60740000     -71.20760000
C      -43.05940000     -34.50200000     -73.28760000
H      -44.15320000     -34.73690000     -73.34610000
H      -42.50500000     -35.25430000     -73.95630000
C      -46.61970000     -36.28200000     -71.32480000
H      -46.12130000     -35.97780000     -72.17760000
H      -46.82340000     -37.35320000     -71.49110000
C      -45.65800000     -36.12530000     -70.20260000
H      -45.92040000     -36.80630000     -69.41960000
H      -44.64000000     -36.50660000     -70.40390000
C      -42.72310000     -34.68570000     -71.74430000
H      -41.60280000     -34.55260000     -71.60050000
H      -43.01340000     -35.66290000     -71.50920000
C      -43.37080000     -33.61420000     -70.79420000
C      -42.73830000     -32.43810000     -70.69210000
C      -44.56820000     -33.73460000     -69.93940000
H      -41.84870000     -32.15490000     -71.16910000
C      -44.76380000     -32.53010000     -69.19230000
C      -45.58750000     -34.72600000     -69.66150000
C      -46.55510000     -34.28010000     -68.76900000
S      -43.49020000     -31.35100000     -69.57330000
S      -46.26820000     -32.63910000     -68.39230000
H      -47.57960000     -34.75600000     -68.67210000
