40
Properties=species:S:1:pos:R:3 #=T CELL(abcABC):=T 1.889726e+02=T 90.00000=T Traj:=T positionsangstrom=T Step:=T 0=T Bead:=T pbc="F F F"
C      -47.35500000     -32.19290000     -71.54870000
C      -47.28010000     -33.23460000     -72.43510000
C      -46.37510000     -33.17610000     -73.50620000
C      -45.46510000     -32.06700000     -73.51340000
C      -45.56200000     -31.05930000     -72.57400000
C      -46.51400000     -31.13050000     -71.55450000
H      -48.03880000     -32.43810000     -70.69270000
H      -46.38320000     -33.80390000     -74.35480000
H      -44.85870000     -30.21210000     -72.46320000
H      -46.46760000     -30.34400000     -70.74750000
C      -44.35030000     -31.90880000     -74.50830000
H      -44.09260000     -30.91550000     -74.58710000
H      -44.67060000     -32.35670000     -75.44470000
C      -48.26320000     -34.36690000     -72.50660000
H      -49.24680000     -33.96000000     -72.31060000
H      -48.23940000     -34.73580000     -73.55300000
S      -42.85450000     -32.79100000     -73.89350000
S      -48.15360000     -35.61470000     -71.17150000
C      -43.45750000     -34.37630000     -73.17880000
H      -44.49480000     -34.48030000     -73.01110000
H      -43.20150000     -35.05850000     -73.97570000
C      -46.53300000     -36.47180000     -71.38780000
H      -46.19880000     -35.93730000     -72.27680000
H      -46.58960000     -37.59920000     -71.60180000
C      -45.66210000     -36.17770000     -70.18360000
H      -45.94280000     -36.89270000     -69.27030000
H      -44.66420000     -36.50260000     -70.46810000
C      -42.83030000     -34.72700000     -71.83040000
H      -41.74510000     -34.73960000     -71.77400000
H      -43.08560000     -35.79700000     -71.54320000
C      -43.28990000     -33.76790000     -70.76080000
C      -42.68460000     -32.56200000     -70.66690000
C      -44.48760000     -33.88290000     -70.02340000
H      -41.78190000     -32.20790000     -71.11550000
C      -44.75370000     -32.65390000     -69.41230000
C      -45.59780000     -34.76870000     -69.72830000
C      -46.47550000     -34.28660000     -68.77610000
S      -43.57540000     -31.37160000     -69.62490000
S      -46.07420000     -32.64370000     -68.29760000
H      -47.21260000     -34.93430000     -68.27610000
