40
Properties=species:S:1:pos:R:3 #=T CELL(abcABC):=T 1.889726e+02=T 90.00000=T Traj:=T positionsangstrom=T Step:=T 0=T Bead:=T pbc="F F F"
C      -47.50420000     -32.22570000     -72.32600000
C      -47.36330000     -33.41880000     -73.13800000
C      -46.18910000     -33.51920000     -73.87350000
C      -45.17860000     -32.45050000     -73.86580000
C      -45.47510000     -31.26340000     -73.23160000
C      -46.64100000     -31.15770000     -72.34220000
H      -48.36120000     -32.20520000     -71.74690000
H      -46.09130000     -34.45960000     -74.42240000
H      -44.77720000     -30.39090000     -73.35330000
H      -46.73240000     -30.25300000     -71.77940000
C      -43.89540000     -32.66070000     -74.58760000
H      -43.66890000     -31.73100000     -75.20080000
H      -43.89620000     -33.49430000     -75.24070000
C      -48.30300000     -34.55490000     -72.97240000
H      -49.39670000     -34.23220000     -72.96010000
H      -48.23050000     -35.36670000     -73.71190000
S      -42.37980000     -32.93020000     -73.50580000
S      -48.19020000     -35.52280000     -71.40310000
C      -42.88050000     -34.59500000     -72.63290000
H      -43.96920000     -34.76400000     -72.74990000
H      -42.30930000     -35.43410000     -73.09480000
C      -46.46790000     -36.15330000     -71.51720000
H      -45.92830000     -35.40620000     -72.21200000
H      -46.34520000     -37.13000000     -71.87440000
C      -45.72320000     -35.98710000     -70.17690000
H      -46.37240000     -36.63480000     -69.54030000
H      -44.67880000     -36.29950000     -70.22030000
C      -42.47130000     -34.47530000     -71.19560000
H      -41.44510000     -34.16370000     -71.09960000
H      -42.66820000     -35.50440000     -70.78040000
C      -43.35270000     -33.46450000     -70.39870000
C      -42.84640000     -32.16650000     -70.22680000
C      -44.65410000     -33.66590000     -69.81450000
H      -41.81370000     -31.95680000     -70.47160000
C      -44.95940000     -32.54830000     -69.05220000
C      -45.71710000     -34.62360000     -69.65870000
C      -46.77520000     -34.23970000     -68.84450000
S      -43.80650000     -31.24510000     -69.04610000
S      -46.56690000     -32.54360000     -68.32410000
H      -47.56300000     -34.91560000     -68.57850000
