40
Properties=species:S:1:pos:R:3 #=T CELL(abcABC):=T 1.889726e+02=T 90.00000=T Traj:=T positionsangstrom=T Step:=T 0=T Bead:=T pbc="F F F"
C      -47.46070000     -32.07250000     -72.02980000
C      -47.44380000     -33.16680000     -72.94520000
C      -46.35620000     -33.35030000     -73.77850000
C      -45.36090000     -32.40590000     -73.74280000
C      -45.46160000     -31.19720000     -73.01800000
C      -46.52700000     -31.00740000     -72.15240000
H      -48.18610000     -32.00950000     -71.16920000
H      -46.19340000     -34.23550000     -74.35700000
H      -44.55130000     -30.58210000     -73.05300000
H      -46.67270000     -30.12180000     -71.50700000
C      -44.07830000     -32.55320000     -74.55780000
H      -43.70580000     -31.65390000     -74.91820000
H      -44.33620000     -33.25910000     -75.45250000
C      -48.46300000     -34.23520000     -72.86300000
H      -49.47890000     -33.90100000     -72.60480000
H      -48.40470000     -34.72210000     -73.92360000
S      -42.53730000     -33.19030000     -73.61240000
S      -48.10710000     -35.53670000     -71.58990000
C      -43.17720000     -34.64090000     -72.61380000
H      -44.23510000     -34.59260000     -72.63520000
H      -42.90310000     -35.45940000     -73.28020000
C      -46.30710000     -35.86530000     -71.62600000
H      -45.77220000     -35.16230000     -72.20420000
H      -46.05950000     -36.86150000     -72.09990000
C      -45.77410000     -36.06940000     -70.18780000
H      -46.40050000     -36.80080000     -69.68750000
H      -44.82930000     -36.59970000     -70.26190000
C      -42.56830000     -34.68290000     -71.23890000
H      -41.51370000     -34.47970000     -71.22210000
H      -42.68230000     -35.60870000     -70.69100000
C      -43.26140000     -33.60770000     -70.40310000
C      -42.74300000     -32.35360000     -70.23460000
C      -44.58290000     -33.71890000     -69.78070000
H      -41.81870000     -32.07360000     -70.74450000
C      -44.94940000     -32.49920000     -69.21450000
C      -45.59860000     -34.71670000     -69.55860000
C      -46.61410000     -34.29050000     -68.72470000
S      -43.73850000     -31.19470000     -69.32910000
S      -46.40460000     -32.64060000     -68.21520000
H      -47.53590000     -34.79840000     -68.46850000
