40
Properties=species:S:1:pos:R:3 #=T CELL(abcABC):=T 1.889726e+02=T 90.00000=T Traj:=T positionsangstrom=T Step:=T 0=T Bead:=T pbc="F F F"
C      -47.40820000     -32.06670000     -71.84900000
C      -47.38910000     -33.19770000     -72.80590000
C      -46.31390000     -33.33140000     -73.63390000
C      -45.28530000     -32.39970000     -73.57180000
C      -45.28730000     -31.31190000     -72.71370000
C      -46.35510000     -31.14720000     -71.81060000
H      -48.17910000     -31.89680000     -71.10230000
H      -46.24500000     -34.07720000     -74.42240000
H      -44.49010000     -30.51880000     -72.77640000
H      -46.48770000     -30.31460000     -71.16470000
C      -44.10760000     -32.56330000     -74.48570000
H      -43.85200000     -31.63180000     -74.94760000
H      -44.29020000     -33.26320000     -75.30510000
C      -48.43310000     -34.28640000     -72.82100000
H      -49.44200000     -34.00270000     -72.79970000
H      -48.24220000     -34.80620000     -73.79260000
S      -42.51120000     -33.00840000     -73.68850000
S      -48.43060000     -35.62910000     -71.50140000
C      -42.86270000     -34.69380000     -72.97310000
H      -43.96220000     -34.82900000     -73.26940000
H      -42.27130000     -35.55510000     -73.43860000
C      -46.70890000     -36.09800000     -71.61110000
H      -46.24290000     -35.48460000     -72.37820000
H      -46.53190000     -37.13480000     -71.90010000
C      -45.73560000     -35.93710000     -70.31610000
H      -45.92390000     -36.74910000     -69.56570000
H      -44.80320000     -36.13690000     -70.84970000
C      -42.68310000     -34.67820000     -71.42280000
H      -41.61240000     -34.64180000     -71.29790000
H      -43.00240000     -35.68070000     -71.03280000
C      -43.42450000     -33.54430000     -70.70290000
C      -42.88180000     -32.34080000     -70.55580000
C      -44.57230000     -33.68740000     -69.77090000
H      -41.98010000     -32.01090000     -71.10000000
C      -44.81480000     -32.49900000     -69.07690000
C      -45.67750000     -34.61490000     -69.62400000
C      -46.68450000     -34.19480000     -68.76440000
S      -43.63960000     -31.23950000     -69.39830000
S      -46.25180000     -32.60580000     -68.17920000
H      -47.48540000     -34.81300000     -68.39250000
