40
Properties=species:S:1:pos:R:3 #=T CELL(abcABC):=T 1.889726e+02=T 90.00000=T Traj:=T positionsangstrom=T Step:=T 0=T Bead:=T pbc="F F F"
C      -47.49850000     -32.46290000     -71.03400000
C      -47.70160000     -33.25680000     -72.14210000
C      -46.97220000     -33.05500000     -73.35380000
C      -46.12480000     -31.96090000     -73.43970000
C      -46.08050000     -31.06860000     -72.34640000
C      -46.75500000     -31.28280000     -71.15540000
H      -48.12880000     -32.63320000     -70.14470000
H      -47.29940000     -33.62000000     -74.19770000
H      -45.34330000     -30.29710000     -72.49610000
H      -46.70590000     -30.52280000     -70.35220000
C      -45.21060000     -31.75520000     -74.70590000
H      -45.14880000     -30.74710000     -75.20650000
H      -45.59960000     -32.48050000     -75.50590000
C      -48.64030000     -34.45610000     -72.03100000
H      -49.55220000     -34.22680000     -71.46670000
H      -48.95130000     -34.76740000     -73.04240000
S      -43.45770000     -32.13680000     -74.11910000
S      -47.74080000     -35.81640000     -71.16720000
C      -43.61700000     -33.92130000     -73.58940000
H      -44.68270000     -34.19450000     -73.35270000
H      -43.33740000     -34.57430000     -74.45330000
C      -46.08400000     -36.01500000     -71.94210000
H      -45.93200000     -35.14190000     -72.60020000
H      -46.14330000     -36.93040000     -72.56710000
C      -45.04530000     -36.22270000     -70.82870000
H      -45.40460000     -37.04550000     -70.13190000
H      -44.12590000     -36.56200000     -71.21950000
C      -42.73120000     -34.22970000     -72.30760000
H      -41.67780000     -33.84400000     -72.50600000
H      -42.67350000     -35.33060000     -72.08920000
C      -43.26480000     -33.37090000     -71.12100000
C      -42.88980000     -32.04050000     -71.05420000
C      -44.21900000     -33.82540000     -70.11170000
H      -42.02240000     -31.64900000     -71.62150000
C      -44.41430000     -32.91180000     -69.07560000
C      -44.91470000     -35.02930000     -69.90630000
C      -45.65560000     -35.03280000     -68.69650000
S      -43.62490000     -31.41090000     -69.45400000
S      -45.43670000     -33.48260000     -67.84810000
H      -46.31760000     -35.69150000     -68.32040000
