40
Properties=species:S:1:pos:R:3 #=T CELL(abcABC):=T 1.889726e+02=T 90.00000=T Traj:=T positionsangstrom=T Step:=T 0=T Bead:=T pbc="F F F"
C      -42.38480000     -31.34630000     -69.69090000
C      -43.19710000     -32.14670000     -68.88930000
C      -44.53740000     -31.82200000     -68.64610000
C      -45.10000000     -30.63440000     -69.19240000
C      -44.24060000     -29.79760000     -69.92720000
C      -42.91500000     -30.14970000     -70.08410000
H      -41.37500000     -31.85670000     -69.76500000
H      -45.09890000     -32.40680000     -67.92470000
H      -44.49840000     -28.78860000     -70.26860000
H      -42.26350000     -29.43740000     -70.53290000
C      -46.59280000     -30.28570000     -69.03140000
H      -46.83530000     -29.51720000     -69.79470000
H      -46.77990000     -29.74780000     -68.08340000
C      -42.74140000     -33.44210000     -68.34400000
H      -41.94320000     -33.28940000     -67.58710000
H      -43.62800000     -33.87660000     -67.80580000
S      -47.64800000     -31.75420000     -68.86490000
S      -41.95530000     -34.53080000     -69.64400000
C      -47.19070000     -33.12720000     -70.11530000
H      -46.20310000     -33.55560000     -69.91790000
H      -47.88060000     -33.95320000     -69.90980000
C      -43.47410000     -35.09620000     -70.51740000
H      -44.19250000     -35.41510000     -69.74200000
H      -43.24480000     -35.97700000     -71.04010000
C      -44.02670000     -34.04740000     -71.55800000
H      -44.59790000     -33.29070000     -71.07160000
H      -43.10870000     -33.43580000     -71.97910000
C      -47.40350000     -32.59070000     -71.49500000
H      -46.63340000     -31.84560000     -71.68940000
H      -48.38860000     -32.01720000     -71.68130000
C      -47.34290000     -33.68480000     -72.61010000
C      -48.46290000     -33.87810000     -73.40510000
C      -46.21030000     -34.41430000     -73.09060000
H      -49.31580000     -33.29400000     -73.24500000
C      -46.56510000     -35.23350000     -74.14850000
C      -44.82500000     -34.67120000     -72.71060000
C      -44.12160000     -35.53340000     -73.59400000
S      -48.15780000     -34.95200000     -74.70640000
S      -45.24320000     -36.06690000     -74.91080000
H      -43.06170000     -35.87100000     -73.56970000
