40
Properties=species:S:1:pos:R:3 #=T CELL(abcABC):=T 1.889726e+02=T 90.00000=T Traj:=T positionsangstrom=T Step:=T 0=T Bead:=T pbc="F F F"
C      -42.32150000     -31.07060000     -69.61070000
C      -43.06970000     -31.98440000     -68.77580000
C      -44.46830000     -31.84630000     -68.74000000
C      -45.14350000     -30.83670000     -69.40170000
C      -44.38730000     -29.92590000     -70.11190000
C      -42.98780000     -30.04920000     -70.22380000
H      -41.29800000     -31.06160000     -69.71390000
H      -45.04640000     -32.55540000     -68.16840000
H      -44.97960000     -29.13890000     -70.68840000
H      -42.37070000     -29.30380000     -70.73020000
C      -46.64810000     -30.60310000     -69.32120000
H      -47.12040000     -30.07680000     -70.21000000
H      -46.76430000     -29.86490000     -68.42290000
C      -42.36960000     -33.23000000     -68.22140000
H      -41.46300000     -33.02520000     -67.71770000
H      -43.05360000     -33.77180000     -67.58750000
S      -47.71600000     -32.01180000     -68.82440000
S      -41.99810000     -34.33750000     -69.68520000
C      -47.51290000     -33.14760000     -70.18630000
H      -46.91250000     -34.06890000     -70.03670000
H      -48.48500000     -33.62940000     -70.27070000
C      -43.61920000     -34.71060000     -70.62030000
H      -44.31280000     -34.56120000     -69.86530000
H      -43.59290000     -35.77440000     -70.84210000
C      -43.85310000     -33.79990000     -71.80770000
H      -44.46050000     -32.89270000     -71.40750000
H      -42.89610000     -33.38370000     -72.20270000
C      -47.06880000     -32.51790000     -71.55070000
H      -46.00190000     -32.12410000     -71.57650000
H      -47.78640000     -31.71130000     -71.80670000
C      -47.15820000     -33.56600000     -72.64520000
C      -48.35330000     -33.87810000     -73.17030000
C      -46.09090000     -34.35770000     -73.14810000
H      -49.37010000     -33.48810000     -73.06400000
C      -46.52850000     -35.20350000     -74.18080000
C      -44.68510000     -34.54620000     -72.85450000
C      -44.16380000     -35.54160000     -73.64070000
S      -48.27000000     -35.06960000     -74.39220000
S      -45.35740000     -36.33110000     -74.71700000
H      -43.16010000     -35.89480000     -73.60050000
