40
Properties=species:S:1:pos:R:3 #=T CELL(abcABC):=T 1.889726e+02=T 90.00000=T Traj:=T positionsangstrom=T Step:=T 0=T Bead:=T pbc="F F F"
C      -47.87530000     -32.16440000     -71.59710000
C      -47.81930000     -33.17540000     -72.57300000
C      -46.91100000     -33.07430000     -73.65730000
C      -45.87540000     -32.11430000     -73.67870000
C      -45.94270000     -31.14010000     -72.69300000
C      -46.94060000     -31.16490000     -71.71770000
H      -48.62800000     -32.19840000     -70.82710000
H      -47.01090000     -33.72600000     -74.54450000
H      -45.14950000     -30.34280000     -72.75770000
H      -46.98180000     -30.35330000     -71.05630000
C      -44.86700000     -32.06710000     -74.84450000
H      -44.68300000     -31.01970000     -75.14090000
H      -45.08360000     -32.76270000     -75.63640000
C      -48.74910000     -34.36030000     -72.39490000
H      -49.81370000     -34.08930000     -72.06780000
H      -48.95620000     -34.91060000     -73.30080000
S      -43.14710000     -32.54240000     -74.20940000
S      -48.13570000     -35.54840000     -71.16370000
C      -43.38960000     -34.20030000     -73.38730000
H      -44.47510000     -34.39790000     -73.24270000
H      -42.99030000     -34.98980000     -74.03250000
C      -46.39840000     -35.81980000     -71.73660000
H      -46.12310000     -34.94020000     -72.27360000
H      -46.43110000     -36.74030000     -72.28920000
C      -45.37100000     -36.13070000     -70.60730000
H      -45.58710000     -37.08110000     -70.03650000
H      -44.44710000     -36.54180000     -71.11000000
C      -42.66000000     -34.33900000     -72.07180000
H      -41.65780000     -33.99200000     -72.21920000
H      -42.70310000     -35.34210000     -71.81250000
C      -43.22780000     -33.48890000     -70.90570000
C      -42.62640000     -32.26870000     -70.65240000
C      -44.22460000     -33.80820000     -69.91590000
H      -42.10970000     -31.60320000     -71.36870000
C      -44.33420000     -32.86360000     -68.94370000
C      -45.17400000     -34.93100000     -69.69910000
C      -46.02770000     -34.71270000     -68.58830000
S      -43.28030000     -31.52130000     -69.15570000
S      -45.46340000     -33.25530000     -67.73480000
H      -46.56030000     -35.44980000     -68.08540000
