40
Properties=species:S:1:pos:R:3 #=T CELL(abcABC):=T 1.889726e+02=T 90.00000=T Traj:=T positionsangstrom=T Step:=T 0=T Bead:=T pbc="F F F"
C      -47.87090000     -32.11300000     -71.66710000
C      -47.80890000     -33.16260000     -72.61070000
C      -46.77560000     -33.15700000     -73.62230000
C      -45.82720000     -32.16290000     -73.73030000
C      -45.87280000     -31.11060000     -72.70330000
C      -46.92090000     -31.08990000     -71.71120000
H      -48.73040000     -31.99530000     -70.97940000
H      -46.82550000     -34.00090000     -74.30360000
H      -45.06580000     -30.38070000     -72.60970000
H      -46.99220000     -30.31190000     -70.87850000
C      -44.72050000     -32.08770000     -74.75990000
H      -44.54210000     -31.07880000     -75.12380000
H      -45.04110000     -32.61240000     -75.66790000
C      -48.73380000     -34.28790000     -72.65550000
H      -49.75260000     -33.84780000     -72.60490000
H      -48.64540000     -34.77920000     -73.61820000
S      -43.08440000     -32.70070000     -74.05640000
S      -48.27340000     -35.49020000     -71.30270000
C      -43.45050000     -34.34350000     -73.33220000
H      -44.52580000     -34.46100000     -73.16480000
H      -43.16900000     -35.08290000     -74.04850000
C      -46.49940000     -35.94930000     -71.77530000
H      -46.15760000     -35.26840000     -72.59390000
H      -46.46700000     -36.93210000     -72.28360000
C      -45.53000000     -36.03260000     -70.57110000
H      -45.94170000     -36.88990000     -69.93440000
H      -44.61740000     -36.22640000     -71.10120000
C      -42.78970000     -34.41690000     -71.99530000
H      -41.68060000     -34.30920000     -72.04720000
H      -42.85760000     -35.49260000     -71.64360000
C      -43.23500000     -33.51270000     -70.88480000
C      -42.69930000     -32.25410000     -70.66710000
C      -44.18820000     -33.89880000     -69.87770000
H      -42.03980000     -31.81770000     -71.36180000
C      -44.21330000     -32.88490000     -68.86590000
C      -45.21450000     -34.88150000     -69.68050000
C      -45.96000000     -34.61800000     -68.50300000
S      -43.28260000     -31.41440000     -69.27150000
S      -45.41320000     -33.20060000     -67.64390000
H      -46.71240000     -35.27760000     -68.09930000
