40
Properties=species:S:1:pos:R:3 #=T CELL(abcABC):=T 1.889726e+02=T 90.00000=T Traj:=T positionsangstrom=T Step:=T 0=T Bead:=T pbc="F F F"
C      -42.38880000     -31.28760000     -69.49650000
C      -43.21130000     -32.14500000     -68.75500000
C      -44.59440000     -31.76200000     -68.56990000
C      -45.15830000     -30.63780000     -69.27580000
C      -44.28020000     -29.86600000     -70.08160000
C      -42.92430000     -30.14770000     -70.13430000
H      -41.36640000     -31.60460000     -69.76470000
H      -45.20610000     -32.48720000     -68.07150000
H      -44.76360000     -29.07700000     -70.65730000
H      -42.36270000     -29.51030000     -70.79410000
C      -46.65280000     -30.33760000     -69.31480000
H      -46.99360000     -29.90760000     -70.22350000
H      -46.91980000     -29.64840000     -68.57280000
C      -42.65420000     -33.37980000     -68.21670000
H      -41.66540000     -33.30350000     -67.69750000
H      -43.41590000     -33.88580000     -67.69490000
S      -47.70840000     -31.79180000     -68.85680000
S      -42.06610000     -34.58840000     -69.53500000
C      -47.19110000     -33.09670000     -70.05990000
H      -46.31730000     -33.69550000     -69.72100000
H      -48.09290000     -33.74220000     -70.00620000
C      -43.59860000     -35.16240000     -70.46380000
H      -44.44340000     -35.31780000     -69.75110000
H      -43.29040000     -36.12720000     -70.99730000
C      -44.01560000     -34.14150000     -71.61210000
H      -44.68580000     -33.44000000     -71.16050000
H      -43.20880000     -33.58810000     -71.91360000
C      -46.99280000     -32.61130000     -71.53770000
H      -46.01520000     -32.13950000     -71.63780000
H      -47.61930000     -31.80450000     -71.57890000
C      -47.22030000     -33.60390000     -72.56080000
C      -48.39050000     -33.73620000     -73.24190000
C      -46.17890000     -34.49740000     -73.13800000
H      -49.32930000     -33.25390000     -72.92670000
C      -46.50870000     -35.16410000     -74.27090000
C      -44.75050000     -34.71390000     -72.77370000
C      -44.14400000     -35.53940000     -73.69760000
S      -48.26730000     -34.87160000     -74.61210000
S      -45.14610000     -36.04800000     -75.02820000
H      -43.19060000     -36.01710000     -73.63290000
