40
Properties=species:S:1:pos:R:3 #=T CELL(abcABC):=T 1.889726e+02=T 90.00000=T Traj:=T positionsangstrom=T Step:=T 0=T Bead:=T pbc="F F F"
C      -46.36920000     -29.93150000     -72.13870000
C      -47.48320000     -30.84030000     -72.18620000
C      -47.50830000     -31.93330000     -73.10700000
C      -46.53230000     -32.03660000     -74.08140000
C      -45.62330000     -30.93110000     -74.22000000
C      -45.55690000     -29.93030000     -73.27430000
H      -46.38560000     -29.17610000     -71.38530000
H      -48.34860000     -32.67490000     -72.99140000
H      -44.93270000     -30.83670000     -75.13310000
H      -44.68230000     -29.27150000     -73.43880000
C      -46.60630000     -33.11410000     -75.16260000
H      -45.93290000     -32.99910000     -75.99800000
H      -47.57920000     -33.05930000     -75.56850000
C      -48.46620000     -30.76410000     -71.08300000
H      -48.34580000     -29.88870000     -70.41750000
H      -49.51340000     -30.78410000     -71.42710000
S      -46.30370000     -34.85950000     -74.60060000
S      -48.67000000     -32.31210000     -70.00360000
C      -45.11470000     -34.52550000     -73.16550000
H      -44.06520000     -34.21270000     -73.45950000
H      -45.59560000     -33.67010000     -72.64660000
C      -47.05580000     -32.54780000     -69.18160000
H      -47.31540000     -32.79230000     -68.12400000
H      -46.50170000     -31.58270000     -69.14990000
C      -46.32080000     -33.66080000     -69.84850000
H      -46.77550000     -34.59320000     -69.45580000
H      -46.44790000     -33.67670000     -70.96070000
C      -44.98000000     -35.76470000     -72.24790000
H      -44.66600000     -36.61830000     -72.79610000
H      -45.84030000     -35.90700000     -71.59420000
C      -43.88350000     -35.50160000     -71.21640000
C      -42.66900000     -36.11890000     -71.38060000
C      -43.94690000     -34.66600000     -70.04370000
H      -42.35770000     -36.62160000     -72.34590000
C      -42.71250000     -34.62130000     -69.36980000
C      -44.86700000     -33.76930000     -69.41520000
C      -44.30110000     -33.08130000     -68.29390000
S      -41.48500000     -35.70670000     -70.07750000
S      -42.63980000     -33.63960000     -67.90050000
H      -44.76820000     -32.32640000     -67.72320000
