40
Properties=species:S:1:pos:R:3 #=T CELL(abcABC):=T 1.889726e+02=T 90.00000=T Traj:=T positionsangstrom=T Step:=T 0=T Bead:=T pbc="F F F"
C      -42.98480000     -30.80690000     -70.10550000
C      -43.46930000     -31.49930000     -68.95320000
C      -44.79250000     -31.28420000     -68.63300000
C      -45.68520000     -30.46570000     -69.39040000
C      -45.22090000     -29.80300000     -70.48540000
C      -43.86150000     -29.91830000     -70.79590000
H      -41.88670000     -30.72710000     -70.34200000
H      -45.20770000     -31.58750000     -67.64920000
H      -45.87560000     -29.15210000     -71.08770000
H      -43.43970000     -29.48910000     -71.72910000
C      -47.15390000     -30.43370000     -69.26570000
H      -47.65130000     -30.05160000     -70.14460000
H      -47.47790000     -29.78690000     -68.40720000
C      -42.55210000     -32.49900000     -68.19330000
H      -41.59680000     -32.09520000     -67.73320000
H      -42.99880000     -32.88510000     -67.24250000
S      -47.86720000     -32.14160000     -68.88790000
S      -42.11230000     -33.89210000     -69.28540000
C      -46.93030000     -33.38070000     -70.00270000
H      -45.82170000     -33.39400000     -69.76200000
H      -47.32810000     -34.30500000     -69.75600000
C      -43.38740000     -34.66270000     -70.42860000
H      -44.31590000     -35.00420000     -69.83470000
H      -42.79780000     -35.59930000     -70.65480000
C      -43.74020000     -33.92490000     -71.72880000
H      -44.25460000     -33.02780000     -71.38870000
H      -42.79880000     -33.73080000     -72.27010000
C      -47.11140000     -32.98230000     -71.43080000
H      -46.37610000     -32.18760000     -71.64260000
H      -48.10640000     -32.58410000     -71.50610000
C      -47.03000000     -34.05250000     -72.46100000
C      -48.12670000     -34.37430000     -73.25790000
C      -45.84650000     -34.66060000     -73.03750000
H      -49.17450000     -33.91780000     -73.03080000
C      -46.16480000     -35.49020000     -74.11560000
C      -44.42430000     -34.69970000     -72.78950000
C      -43.79720000     -35.58210000     -73.55030000
S      -47.82680000     -35.45590000     -74.58390000
S      -44.81820000     -36.40830000     -74.70700000
H      -42.73740000     -35.61520000     -73.71240000
