40
Properties=species:S:1:pos:R:3 #=T CELL(abcABC):=T 1.889726e+02=T 90.00000=T Traj:=T positionsangstrom=T Step:=T 0=T Bead:=T pbc="F F F"
C      -47.61950000     -32.19140000     -70.36220000
C      -47.84790000     -32.65470000     -71.63110000
C      -47.01580000     -32.43870000     -72.75080000
C      -45.92940000     -31.53410000     -72.55010000
C      -45.69640000     -31.04120000     -71.26370000
C      -46.60930000     -31.24330000     -70.18520000
H      -48.34640000     -32.40730000     -69.53330000
H      -47.42510000     -32.76020000     -73.70120000
H      -44.85310000     -30.33650000     -71.25340000
H      -46.60460000     -30.71710000     -69.29920000
C      -45.12990000     -31.06180000     -73.75620000
H      -44.90140000     -29.92520000     -73.63760000
H      -45.73810000     -31.16840000     -74.68060000
C      -48.90210000     -33.81410000     -71.78090000
H      -49.82870000     -33.50410000     -71.25460000
H      -49.17630000     -33.95100000     -72.80840000
S      -43.57000000     -32.02220000     -74.01740000
S      -48.54370000     -35.43860000     -71.01130000
C      -44.14890000     -33.76330000     -73.92700000
H      -45.09540000     -33.84570000     -73.41460000
H      -44.23590000     -34.09200000     -74.89390000
C      -47.10140000     -35.77560000     -72.09770000
H      -46.94300000     -34.84550000     -72.65140000
H      -47.36210000     -36.48300000     -72.88110000
C      -45.93870000     -36.12680000     -71.28330000
H      -46.07730000     -37.02310000     -70.61440000
H      -45.08740000     -36.45930000     -71.89000000
C      -43.22520000     -34.60750000     -73.13090000
H      -42.29680000     -34.55410000     -73.65510000
H      -43.58170000     -35.65470000     -73.02300000
C      -43.15980000     -33.99870000     -71.76640000
C      -42.14830000     -33.15880000     -71.36800000
C      -44.08890000     -34.21070000     -70.65160000
H      -41.42850000     -32.71840000     -72.07270000
C      -43.80580000     -33.35760000     -69.54950000
C      -45.30220000     -35.02210000     -70.41100000
C      -45.76370000     -34.81970000     -69.12280000
S      -42.39680000     -32.37720000     -69.78460000
S      -44.94080000     -33.55030000     -68.28650000
H      -46.56050000     -35.41970000     -68.66890000
