40
Properties=species:S:1:pos:R:3 #=T CELL(abcABC):=T 1.889726e+02=T 90.00000=T Traj:=T positionsangstrom=T Step:=T 0=T Bead:=T pbc="F F F"
C      -47.94140000     -32.32970000     -70.70830000
C      -48.12010000     -33.09630000     -71.87800000
C      -47.35830000     -32.66110000     -72.98690000
C      -46.41780000     -31.65240000     -72.95320000
C      -46.31910000     -30.87840000     -71.77130000
C      -47.10210000     -31.16810000     -70.71120000
H      -48.55250000     -32.62130000     -69.85780000
H      -47.42780000     -33.18960000     -73.91000000
H      -45.67010000     -30.02620000     -71.76350000
H      -47.10150000     -30.55670000     -69.75360000
C      -45.52290000     -31.45980000     -74.16610000
H      -45.36530000     -30.44050000     -74.43470000
H      -45.97250000     -32.02630000     -74.95980000
C      -48.96190000     -34.26540000     -71.94600000
H      -49.83800000     -34.11930000     -71.33910000
H      -49.22210000     -34.42960000     -72.98290000
S      -43.75360000     -32.01760000     -74.08440000
S      -48.19300000     -35.83080000     -71.23240000
C      -43.89800000     -33.84940000     -73.81630000
H      -44.81990000     -34.00420000     -73.42480000
H      -43.78680000     -34.37600000     -74.86320000
C      -46.52350000     -36.01840000     -71.98200000
H      -46.13060000     -35.29940000     -72.68890000
H      -46.55000000     -36.94040000     -72.50020000
C      -45.44110000     -36.22420000     -70.94560000
H      -45.80210000     -37.00760000     -70.28600000
H      -44.49300000     -36.54540000     -71.45090000
C      -42.83790000     -34.33160000     -72.85400000
H      -41.82150000     -34.16500000     -73.19170000
H      -42.98110000     -35.34450000     -72.79620000
C      -42.99700000     -33.71440000     -71.45690000
C      -42.19100000     -32.62670000     -71.10280000
C      -43.91140000     -33.98330000     -70.37420000
H      -41.36870000     -32.22590000     -71.66740000
C      -43.75480000     -33.10840000     -69.30870000
C      -44.99690000     -34.95310000     -70.17390000
C      -45.59560000     -34.66510000     -68.98440000
S      -42.47880000     -31.95380000     -69.54050000
S      -44.92910000     -33.43800000     -68.03180000
H      -46.27140000     -35.28870000     -68.43450000
