40
Properties=species:S:1:pos:R:3 #=T CELL(abcABC):=T 1.889726e+02=T 90.00000=T Traj:=T positionsangstrom=T Step:=T 0=T Bead:=T pbc="F F F"
C      -47.81490000     -32.48690000     -71.15120000
C      -47.81390000     -33.33660000     -72.26050000
C      -47.03200000     -32.92760000     -73.39970000
C      -46.31600000     -31.76010000     -73.44080000
C      -46.35140000     -30.95070000     -72.31870000
C      -47.02050000     -31.30040000     -71.19500000
H      -48.43570000     -32.64550000     -70.27390000
H      -47.01010000     -33.67630000     -74.18690000
H      -45.73830000     -30.01800000     -72.26170000
H      -47.20130000     -30.67020000     -70.35690000
C      -45.38540000     -31.47650000     -74.56440000
H      -45.33590000     -30.39930000     -74.69360000
H      -45.67880000     -31.96560000     -75.50830000
C      -48.60000000     -34.57730000     -72.29960000
H      -49.64830000     -34.38350000     -71.93940000
H      -48.55880000     -35.05960000     -73.31040000
S      -43.70140000     -32.13860000     -74.13620000
S      -48.00320000     -35.88980000     -71.05460000
C      -43.76270000     -33.93510000     -73.70080000
H      -44.79140000     -34.30760000     -73.29470000
H      -43.42840000     -34.59500000     -74.54770000
C      -46.36890000     -36.19700000     -71.70680000
H      -46.26420000     -35.48220000     -72.58400000
H      -46.37520000     -37.24230000     -72.18070000
C      -45.14880000     -36.24250000     -70.79750000
H      -45.20170000     -37.16340000     -70.22600000
H      -44.29730000     -36.32890000     -71.47860000
C      -42.78350000     -34.15170000     -72.49900000
H      -41.79190000     -33.79790000     -72.85940000
H      -42.75520000     -35.25470000     -72.24520000
C      -43.13200000     -33.38760000     -71.21300000
C      -42.51800000     -32.19800000     -70.94570000
C      -43.98390000     -33.91400000     -70.13440000
H      -41.78810000     -31.66200000     -71.55470000
C      -44.04070000     -32.96470000     -69.05470000
C      -44.96530000     -35.03090000     -69.94930000
C      -45.61500000     -34.80820000     -68.74750000
S      -42.88820000     -31.58950000     -69.28860000
S      -45.30440000     -33.32440000     -67.89050000
H      -46.35770000     -35.56330000     -68.32410000
