40
Properties=species:S:1:pos:R:3 #=T CELL(abcABC):=T 1.889726e+02=T 90.00000=T Traj:=T positionsangstrom=T Step:=T 0=T Bead:=T pbc="F F F"
C      -42.81620000     -30.52840000     -70.01940000
C      -43.48720000     -31.38770000     -69.12820000
C      -44.90070000     -31.32460000     -68.97090000
C      -45.68630000     -30.44510000     -69.71000000
C      -44.94830000     -29.53280000     -70.49810000
C      -43.56680000     -29.59840000     -70.70940000
H      -41.72130000     -30.53100000     -70.15250000
H      -45.27780000     -31.94250000     -68.15330000
H      -45.52760000     -28.96960000     -71.27530000
H      -43.08460000     -28.86700000     -71.26460000
C      -47.23720000     -30.32690000     -69.56240000
H      -47.59390000     -30.01910000     -70.54770000
H      -47.59660000     -29.56070000     -68.84770000
C      -42.78170000     -32.40510000     -68.34190000
H      -41.99780000     -31.86630000     -67.73560000
H      -43.45970000     -32.97980000     -67.67020000
S      -48.01500000     -31.96400000     -69.23360000
S      -41.87130000     -33.58860000     -69.46010000
C      -47.01210000     -33.13320000     -70.26710000
H      -45.97960000     -32.98710000     -70.06650000
H      -47.19440000     -34.12410000     -69.96800000
C      -43.25790000     -34.48110000     -70.34660000
H      -44.07180000     -34.81440000     -69.60900000
H      -42.75750000     -35.35180000     -70.75980000
C      -43.89300000     -33.73740000     -71.50880000
H      -44.59520000     -33.00880000     -71.06200000
H      -43.03520000     -33.29320000     -72.04590000
C      -47.39110000     -32.86350000     -71.75890000
H      -46.86190000     -31.97660000     -72.04350000
H      -48.43770000     -32.62650000     -71.73240000
C      -47.11550000     -34.09430000     -72.66830000
C      -48.21370000     -34.52420000     -73.43760000
C      -45.96120000     -34.84690000     -72.93120000
H      -49.18340000     -34.16100000     -73.45680000
C      -46.17280000     -35.94190000     -73.76490000
C      -44.55180000     -34.74030000     -72.49320000
C      -43.80990000     -35.70900000     -73.09220000
S      -47.79780000     -35.92720000     -74.36830000
S      -44.70210000     -36.81810000     -74.13850000
H      -42.79880000     -36.05350000     -72.93300000
