40
Properties=species:S:1:pos:R:3 #=T CELL(abcABC):=T 1.889726e+02=T 90.00000=T Traj:=T positionsangstrom=T Step:=T 0=T Bead:=T pbc="F F F"
C      -42.85380000     -30.60410000     -70.57790000
C      -43.32710000     -31.32520000     -69.45090000
C      -44.70870000     -31.38010000     -69.23390000
C      -45.58490000     -30.45620000     -69.89850000
C      -45.08140000     -29.62710000     -70.92220000
C      -43.72810000     -29.76180000     -71.23130000
H      -41.79870000     -30.74530000     -70.86910000
H      -45.10820000     -31.92260000     -68.35540000
H      -45.68570000     -28.81930000     -71.33710000
H      -43.37920000     -29.09100000     -72.06830000
C      -47.09000000     -30.37030000     -69.74990000
H      -47.54790000     -29.85290000     -70.63520000
H      -47.33260000     -29.62700000     -68.93500000
C      -42.48760000     -32.18740000     -68.57390000
H      -41.53260000     -31.63180000     -68.34880000
H      -42.91390000     -32.31940000     -67.59460000
S      -47.99130000     -31.82150000     -69.04640000
S      -41.86170000     -33.77280000     -69.34310000
C      -47.47310000     -33.23290000     -70.10170000
H      -46.50800000     -33.59770000     -69.77010000
H      -48.28440000     -33.99050000     -69.94760000
C      -43.36560000     -34.43660000     -70.15000000
H      -44.08090000     -34.30240000     -69.30710000
H      -43.05890000     -35.47900000     -70.37520000
C      -43.83960000     -33.82680000     -71.45980000
H      -44.51540000     -33.05210000     -71.23930000
H      -43.08490000     -33.29330000     -72.00450000
C      -47.34770000     -32.81300000     -71.63400000
H      -46.57180000     -32.02690000     -71.84500000
H      -48.27620000     -32.27050000     -71.97360000
C      -47.14370000     -34.05710000     -72.46770000
C      -48.20670000     -34.49860000     -73.22400000
C      -45.85240000     -34.75210000     -72.83280000
H      -49.24240000     -34.11390000     -73.18330000
C      -46.14000000     -35.67590000     -73.83850000
C      -44.49550000     -34.83080000     -72.36140000
C      -43.80470000     -35.89990000     -72.95790000
S      -47.83900000     -35.87500000     -74.17670000
S      -44.78090000     -36.81500000     -74.04860000
H      -42.75250000     -36.05160000     -72.81020000
