40
Properties=species:S:1:pos:R:3 #=T CELL(abcABC):=T 1.889726e+02=T 90.00000=T Traj:=T positionsangstrom=T Step:=T 0=T Bead:=T pbc="F F F"
C      -46.47660000     -31.53060000     -69.78550000
C      -47.23500000     -31.49960000     -70.98330000
C      -46.57320000     -31.12960000     -72.14330000
C      -45.19100000     -30.71800000     -72.11750000
C      -44.51900000     -30.72890000     -70.89080000
C      -45.20010000     -31.08190000     -69.71420000
H      -46.90460000     -31.64860000     -68.84770000
H      -47.01140000     -31.13230000     -73.14830000
H      -43.46830000     -30.43580000     -70.82410000
H      -44.83300000     -31.10040000     -68.70750000
C      -44.47350000     -30.49240000     -73.43640000
H      -43.84840000     -29.63970000     -73.38910000
H      -45.25460000     -30.37140000     -74.14320000
C      -48.68900000     -31.97620000     -70.99690000
H      -49.14630000     -31.53920000     -70.13550000
H      -49.21350000     -31.64790000     -71.89900000
S      -43.33620000     -31.85230000     -74.01110000
S      -48.68620000     -33.81670000     -70.83020000
C      -44.55680000     -33.23760000     -74.18130000
H      -45.50300000     -32.99250000     -73.68670000
H      -44.80330000     -33.35870000     -75.32470000
C      -47.75330000     -34.38330000     -72.34440000
H      -47.00030000     -33.68740000     -72.67210000
H      -48.53560000     -34.47520000     -73.11940000
C      -47.03610000     -35.66110000     -71.96380000
H      -47.85800000     -36.34620000     -71.56940000
H      -46.49880000     -36.02390000     -72.87830000
C      -44.13040000     -34.61200000     -73.61250000
H      -43.27470000     -35.12340000     -74.22090000
H      -44.94880000     -35.24930000     -73.90200000
C      -43.76250000     -34.59300000     -72.15620000
C      -42.58400000     -34.12740000     -71.71660000
C      -44.72770000     -34.95160000     -71.05390000
H      -41.79230000     -33.78900000     -72.26550000
C      -44.15100000     -34.69200000     -69.80150000
C      -46.02760000     -35.58010000     -70.82170000
C      -46.27770000     -35.84590000     -69.50220000
S      -42.42640000     -34.18440000     -69.95020000
S      -44.97780000     -35.37310000     -68.44620000
H      -47.25010000     -36.23810000     -69.18190000
