40
Properties=species:S:1:pos:R:3 #=T CELL(abcABC):=T 1.889726e+02=T 90.00000=T Traj:=T positionsangstrom=T Step:=T 0=T Bead:=T pbc="F F F"
C      -41.84800000     -31.88220000     -73.56930000
C      -43.27710000     -31.89440000     -73.42920000
C      -44.04280000     -33.01720000     -73.57730000
C      -43.36410000     -34.27880000     -73.85180000
C      -41.99540000     -34.30080000     -73.87660000
C      -41.26650000     -33.13180000     -73.71390000
H      -41.30510000     -30.96800000     -73.48350000
H      -45.19130000     -32.99600000     -73.49920000
H      -41.48930000     -35.31300000     -73.96490000
H      -40.10290000     -33.14080000     -73.75270000
C      -44.06080000     -35.52470000     -74.23220000
H      -43.49120000     -36.47030000     -73.99570000
H      -44.23110000     -35.56340000     -75.31560000
C      -44.00860000     -30.63300000     -73.03660000
H      -43.40530000     -29.84470000     -73.43240000
H      -45.12560000     -30.50870000     -73.30840000
S      -45.72810000     -35.88680000     -73.45450000
S      -43.52720000     -30.39520000     -71.15380000
C      -45.06070000     -36.35600000     -71.72780000
H      -45.63510000     -37.12090000     -71.21030000
H      -44.03970000     -36.68680000     -71.82070000
C      -43.81660000     -32.14100000     -70.51820000
H      -42.81300000     -32.64360000     -70.59400000
H      -44.52730000     -32.63930000     -71.22280000
C      -44.34950000     -32.53200000     -69.10740000
H      -43.82910000     -33.48670000     -68.85350000
H      -43.96240000     -31.90700000     -68.27130000
C      -45.04320000     -35.16560000     -70.81600000
H      -44.41000000     -34.40020000     -71.25860000
H      -44.48960000     -35.40060000     -69.89180000
C      -46.45080000     -34.65540000     -70.39960000
C      -47.61510000     -35.29550000     -70.83210000
C      -46.66190000     -33.46830000     -69.67810000
H      -47.69600000     -36.22880000     -71.22660000
C      -48.05400000     -33.42630000     -69.33030000
C      -45.83770000     -32.54120000     -68.98350000
C      -46.52680000     -31.65030000     -68.21020000
S      -49.02830000     -34.61520000     -70.10510000
S      -48.27360000     -32.08160000     -68.12510000
H      -46.22410000     -30.77020000     -67.63520000
