40
Properties=species:S:1:pos:R:3 #=T CELL(abcABC):=T 1.889726e+02=T 90.00000=T Traj:=T positionsangstrom=T Step:=T 0=T Bead:=T pbc="F F F"
C      -46.48280000     -29.79390000     -72.22760000
C      -47.36180000     -30.82520000     -72.11720000
C      -47.38670000     -31.95550000     -72.95280000
C      -46.45400000     -31.98780000     -73.99730000
C      -45.60770000     -30.88480000     -74.24960000
C      -45.58410000     -29.77660000     -73.34710000
H      -46.37670000     -28.97930000     -71.51280000
H      -48.02260000     -32.80510000     -72.75990000
H      -45.10080000     -30.86370000     -75.14660000
H      -44.88230000     -28.93280000     -73.53390000
C      -46.36450000     -33.20400000     -74.96170000
H      -45.38990000     -33.14190000     -75.42680000
H      -47.09690000     -33.25890000     -75.74710000
C      -48.44480000     -30.75070000     -70.99800000
H      -48.26350000     -29.96710000     -70.24920000
H      -49.30330000     -30.38550000     -71.54400000
S      -46.57530000     -34.87670000     -74.17890000
S      -48.76550000     -32.34210000     -70.10920000
C      -44.91650000     -34.90120000     -73.23770000
H      -44.11640000     -35.19190000     -73.93090000
H      -44.77140000     -33.91440000     -72.74540000
C      -47.15840000     -32.63160000     -69.29440000
H      -47.45030000     -33.19080000     -68.39260000
H      -46.69170000     -31.64890000     -68.96800000
C      -46.29250000     -33.58140000     -70.08750000
H      -46.77250000     -34.61090000     -69.96780000
H      -46.21750000     -33.37350000     -71.18260000
C      -44.88020000     -35.92090000     -72.15140000
H      -44.75220000     -36.93290000     -72.58980000
H      -45.74940000     -35.97540000     -71.54000000
C      -43.74870000     -35.64710000     -71.17300000
C      -42.49680000     -36.13200000     -71.35320000
C      -43.81180000     -34.72380000     -70.08000000
H      -42.28450000     -36.89900000     -72.00180000
C      -42.67270000     -34.66580000     -69.34360000
C      -44.85130000     -33.82450000     -69.55640000
C      -44.43620000     -33.17030000     -68.42100000
S      -41.41410000     -35.51850000     -70.16010000
S      -42.78870000     -33.48130000     -68.07030000
H      -45.10720000     -32.53300000     -67.81530000
