40
Properties=species:S:1:pos:R:3 #=T CELL(abcABC):=T 1.889726e+02=T 90.00000=T Traj:=T positionsangstrom=T Step:=T 0=T Bead:=T pbc="F F F"
C      -46.65220000     -31.48710000     -69.73940000
C      -47.35220000     -31.60110000     -70.94820000
C      -46.56550000     -31.32320000     -72.09260000
C      -45.20500000     -31.00760000     -72.02580000
C      -44.54470000     -30.94250000     -70.78920000
C      -45.29380000     -31.19750000     -69.66820000
H      -47.01050000     -31.69080000     -68.77190000
H      -47.09500000     -31.30120000     -73.03780000
H      -43.51010000     -30.68040000     -70.74710000
H      -44.73080000     -31.35180000     -68.77860000
C      -44.48390000     -30.53940000     -73.29920000
H      -43.61840000     -29.82400000     -73.10640000
H      -45.08900000     -30.01600000     -74.06120000
C      -48.76100000     -32.11090000     -71.17710000
H      -49.39400000     -31.69540000     -70.39380000
H      -49.31710000     -31.86430000     -72.12400000
S      -43.60370000     -31.95060000     -74.16080000
S      -48.86470000     -33.94910000     -70.92200000
C      -44.70200000     -33.43580000     -74.26690000
H      -45.70470000     -33.23600000     -73.82120000
H      -44.93460000     -33.70940000     -75.26800000
C      -47.76610000     -34.45160000     -72.39720000
H      -47.12150000     -33.56750000     -72.58450000
H      -48.34910000     -34.67410000     -73.37000000
C      -46.86360000     -35.64290000     -71.95950000
H      -47.33750000     -36.55090000     -71.67340000
H      -46.19920000     -35.95770000     -72.71810000
C      -44.02010000     -34.59280000     -73.55660000
H      -43.00670000     -34.80420000     -74.04760000
H      -44.65660000     -35.43970000     -73.58910000
C      -43.65400000     -34.37940000     -72.04910000
C      -42.39290000     -34.04420000     -71.68330000
C      -44.53430000     -34.83100000     -71.00380000
H      -41.62960000     -33.85670000     -72.29690000
C      -43.92840000     -34.58670000     -69.75140000
C      -45.90770000     -35.21200000     -70.82990000
C      -46.27810000     -35.46490000     -69.53310000
S      -42.27130000     -34.11690000     -69.88290000
S      -44.89400000     -35.17460000     -68.45030000
H      -47.32560000     -35.58920000     -69.23370000
