40
Properties=species:S:1:pos:R:3 #=T CELL(abcABC):=T 1.889726e+02=T 90.00000=T Traj:=T positionsangstrom=T Step:=T 0=T Bead:=T pbc="F F F"
C      -46.20400000     -31.44600000     -69.85790000
C      -47.00960000     -31.43290000     -71.00280000
C      -46.38220000     -30.96020000     -72.18600000
C      -44.98760000     -30.58780000     -72.19050000
C      -44.31320000     -30.54970000     -71.00360000
C      -44.90190000     -31.05960000     -69.85790000
H      -46.58230000     -31.83060000     -68.93440000
H      -46.94360000     -30.98040000     -73.13440000
H      -43.21520000     -30.33350000     -71.09110000
H      -44.48220000     -31.21850000     -68.84720000
C      -44.32050000     -30.32480000     -73.47810000
H      -43.56140000     -29.54000000     -73.28380000
H      -45.01290000     -29.98760000     -74.31850000
C      -48.49250000     -31.81140000     -71.00480000
H      -48.95010000     -31.41470000     -70.09920000
H      -49.01160000     -31.39770000     -71.89770000
S      -43.28480000     -31.85720000     -73.99910000
S      -48.54520000     -33.65600000     -70.73720000
C      -44.60100000     -33.11490000     -74.13560000
H      -45.45620000     -32.76170000     -73.60230000
H      -44.88440000     -33.26170000     -75.19990000
C      -47.92170000     -34.36800000     -72.28750000
H      -47.11170000     -33.67480000     -72.66920000
H      -48.78470000     -34.37980000     -72.97520000
C      -47.28190000     -35.70310000     -71.96030000
H      -47.94080000     -36.41660000     -71.51730000
H      -46.88980000     -36.03610000     -72.87970000
C      -44.24020000     -34.45650000     -73.51480000
H      -43.44600000     -34.96650000     -74.08310000
H      -45.05780000     -35.11390000     -73.81610000
C      -43.94670000     -34.49220000     -72.08830000
C      -42.72910000     -34.09390000     -71.64180000
C      -44.86210000     -34.94320000     -71.02700000
H      -41.88330000     -33.86940000     -72.21870000
C      -44.19370000     -35.04070000     -69.76920000
C      -46.21470000     -35.60420000     -70.90420000
C      -46.47700000     -36.00700000     -69.61060000
S      -42.59210000     -34.26890000     -69.84020000
S      -45.13000000     -35.79010000     -68.54390000
H      -47.34110000     -36.68860000     -69.51610000
