40
Properties=species:S:1:pos:R:3 #=T CELL(abcABC):=T 1.889726e+02=T 90.00000=T Traj:=T positionsangstrom=T Step:=T 0=T Bead:=T pbc="F F F"
C      -42.01650000     -32.28050000     -73.38380000
C      -43.34140000     -31.93110000     -73.30820000
C      -44.23090000     -32.89780000     -73.65010000
C      -43.88560000     -34.25730000     -74.02080000
C      -42.52910000     -34.55250000     -73.93040000
C      -41.57550000     -33.60030000     -73.56750000
H      -41.32020000     -31.57680000     -73.14250000
H      -45.30670000     -32.63940000     -73.65900000
H      -42.23140000     -35.48970000     -74.29770000
H      -40.47460000     -33.76250000     -73.43890000
C      -44.97100000     -35.16730000     -74.48330000
H      -44.74660000     -36.09210000     -75.01720000
H      -45.68100000     -34.62270000     -75.08020000
C      -43.82910000     -30.52340000     -72.96040000
H      -42.95670000     -29.87170000     -72.87660000
H      -44.39430000     -30.13740000     -73.73760000
S      -46.04140000     -35.72170000     -73.06170000
S      -44.74500000     -30.57670000     -71.32670000
C      -44.82300000     -36.30390000     -71.85790000
H      -45.34850000     -37.18570000     -71.36290000
H      -43.84960000     -36.69340000     -72.33450000
C      -43.40830000     -31.47180000     -70.31220000
H      -42.72900000     -30.69900000     -69.99930000
H      -42.89170000     -32.02000000     -71.00430000
C      -44.01240000     -32.32080000     -69.16830000
H      -43.47600000     -33.33780000     -69.12650000
H      -43.75020000     -31.91090000     -68.21260000
C      -44.55560000     -35.33160000     -70.69940000
H      -44.05840000     -34.48060000     -71.08610000
H      -43.93090000     -35.85680000     -70.02290000
C      -45.90290000     -34.92210000     -70.13610000
C      -46.99060000     -35.70870000     -70.19670000
C      -46.18110000     -33.65340000     -69.46970000
H      -47.03110000     -36.70830000     -70.59710000
C      -47.55920000     -33.41750000     -69.31950000
C      -45.53790000     -32.42700000     -69.17740000
C      -46.22990000     -31.26060000     -68.90780000
S      -48.51420000     -34.87820000     -69.67600000
S      -47.95390000     -31.83980000     -68.86780000
H      -45.86510000     -30.22410000     -68.81610000
