40
Properties=species:S:1:pos:R:3 #=T CELL(abcABC):=T 1.889726e+02=T 90.00000=T Traj:=T positionsangstrom=T Step:=T 0=T Bead:=T pbc="F F F"
C      -46.13010000     -31.73110000     -69.72520000
C      -46.90010000     -31.34080000     -70.86390000
C      -46.28870000     -30.83160000     -71.97670000
C      -44.90190000     -30.75140000     -71.99350000
C      -44.10710000     -31.00140000     -70.82930000
C      -44.75530000     -31.50410000     -69.65450000
H      -46.60660000     -32.06000000     -68.79610000
H      -46.80900000     -30.70020000     -72.90890000
H      -43.03490000     -30.84350000     -70.63840000
H      -44.04790000     -31.55280000     -68.80490000
C      -44.15370000     -30.26200000     -73.21210000
H      -43.27180000     -29.78220000     -72.88420000
H      -44.80490000     -29.59510000     -73.79030000
C      -48.39520000     -31.60320000     -70.85340000
H      -48.83220000     -31.15250000     -69.97500000
H      -48.93160000     -31.05910000     -71.58860000
S      -43.55950000     -31.71430000     -74.24600000
S      -48.73740000     -33.48310000     -71.04800000
C      -44.74620000     -33.11180000     -74.07630000
H      -45.63190000     -32.88290000     -73.49070000
H      -45.13460000     -33.35960000     -75.16190000
C      -47.75300000     -34.03360000     -72.45530000
H      -46.96940000     -33.31050000     -72.61920000
H      -48.37610000     -33.99030000     -73.33460000
C      -47.05840000     -35.44610000     -72.26420000
H      -47.89090000     -36.17360000     -72.17900000
H      -46.44110000     -35.75020000     -73.15730000
C      -44.11230000     -34.34600000     -73.46420000
H      -43.14620000     -34.37740000     -73.98960000
H      -44.54510000     -35.26190000     -73.77610000
C      -43.92160000     -34.39960000     -71.99090000
C      -42.74110000     -34.03380000     -71.40520000
C      -44.82180000     -34.98590000     -70.97980000
H      -42.02180000     -33.58100000     -72.06700000
C      -44.21010000     -35.11440000     -69.71740000
C      -46.08390000     -35.56490000     -71.09970000
C      -46.46980000     -36.11480000     -69.93100000
S      -42.62030000     -34.43120000     -69.67030000
S      -45.29430000     -35.92680000     -68.57800000
H      -47.30070000     -36.82360000     -69.75600000
