40
Properties=species:S:1:pos:R:3 #=T CELL(abcABC):=T 1.889726e+02=T 90.00000=T Traj:=T positionsangstrom=T Step:=T 0=T Bead:=T pbc="F F F"
C      -46.52150000     -31.67010000     -69.47360000
C      -46.96540000     -31.38990000     -70.78690000
C      -46.12490000     -31.12930000     -71.82120000
C      -44.71270000     -30.92390000     -71.59970000
C      -44.32850000     -31.31910000     -70.27980000
C      -45.19380000     -31.64000000     -69.20930000
H      -47.19490000     -31.87590000     -68.58340000
H      -46.46290000     -30.99410000     -72.84600000
H      -43.22630000     -31.17540000     -70.09210000
H      -44.64180000     -31.79940000     -68.27970000
C      -43.86310000     -30.43740000     -72.67200000
H      -43.12880000     -29.73310000     -72.20130000
H      -44.47860000     -29.92290000     -73.45700000
C      -48.46360000     -31.60670000     -71.06310000
H      -49.01760000     -31.15670000     -70.20860000
H      -48.75540000     -31.00260000     -71.88560000
S      -42.88180000     -31.89550000     -73.52720000
S      -48.98420000     -33.45860000     -71.29150000
C      -44.30240000     -33.10940000     -74.07590000
H      -45.22840000     -32.78090000     -73.52700000
H      -44.48900000     -33.03420000     -75.21080000
C      -47.97780000     -33.89300000     -72.72940000
H      -47.45790000     -32.95890000     -73.19350000
H      -48.59480000     -34.24360000     -73.56260000
C      -47.05270000     -35.10390000     -72.56990000
H      -47.65160000     -36.10890000     -72.57550000
H      -46.47140000     -35.10610000     -73.49810000
C      -43.89050000     -34.58440000     -73.77190000
H      -42.91060000     -34.71880000     -74.31870000
H      -44.65490000     -35.29420000     -74.11320000
C      -43.70990000     -34.73750000     -72.25330000
C      -42.53730000     -34.54060000     -71.59860000
C      -44.75600000     -35.08690000     -71.28490000
H      -41.57230000     -34.31340000     -72.04110000
C      -44.32250000     -34.99710000     -69.96550000
C      -46.23920000     -35.21770000     -71.33800000
C      -46.82150000     -35.42050000     -70.08740000
S      -42.63730000     -34.56640000     -69.84740000
S      -45.62120000     -35.40690000     -68.82080000
H      -47.84910000     -35.77110000     -70.03750000
