40
Properties=species:S:1:pos:R:3 #=T CELL(abcABC):=T 1.889726e+02=T 90.00000=T Traj:=T positionsangstrom=T Step:=T 0=T Bead:=T pbc="F F F"
C      -46.16840000     -31.82030000     -69.65190000
C      -46.88780000     -31.45670000     -70.80450000
C      -46.24580000     -30.87810000     -71.91200000
C      -44.84890000     -30.84970000     -72.01530000
C      -44.09020000     -31.22540000     -70.83960000
C      -44.77520000     -31.69870000     -69.71580000
H      -46.58140000     -32.31300000     -68.84450000
H      -46.79390000     -30.38400000     -72.66460000
H      -42.93190000     -31.17980000     -70.83110000
H      -44.08460000     -32.04350000     -68.93510000
C      -44.17420000     -30.36370000     -73.22450000
H      -43.39820000     -29.57350000     -73.00600000
H      -44.84700000     -29.86020000     -73.92450000
C      -48.40880000     -31.74080000     -70.83270000
H      -48.91510000     -31.54140000     -69.87000000
H      -48.89360000     -31.21510000     -71.66010000
S      -43.24610000     -31.61640000     -74.09560000
S      -48.87020000     -33.49040000     -71.09680000
C      -44.53930000     -32.88590000     -74.07790000
H      -45.37530000     -32.46280000     -73.56770000
H      -44.91490000     -33.01940000     -75.06680000
C      -47.79150000     -34.04560000     -72.50320000
H      -46.98580000     -33.27640000     -72.64470000
H      -48.46890000     -34.20370000     -73.37740000
C      -47.23160000     -35.42830000     -72.23070000
H      -48.02940000     -36.05770000     -71.94810000
H      -46.75860000     -35.89680000     -73.05370000
C      -44.06500000     -34.21420000     -73.55740000
H      -43.14420000     -34.62270000     -74.05930000
H      -44.91810000     -34.89920000     -73.83770000
C      -43.89300000     -34.41300000     -72.02870000
C      -42.69430000     -34.11960000     -71.34120000
C      -44.84900000     -34.96580000     -71.08140000
H      -41.81420000     -33.89260000     -71.87180000
C      -44.29000000     -35.07030000     -69.79260000
C      -46.24230000     -35.36610000     -71.08140000
C      -46.60390000     -35.82270000     -69.86210000
S      -42.65350000     -34.54050000     -69.67260000
S      -45.32950000     -35.82460000     -68.66260000
H      -47.54210000     -36.22760000     -69.49670000
