40
Properties=species:S:1:pos:R:3 #=T CELL(abcABC):=T 1.889726e+02=T 90.00000=T Traj:=T positionsangstrom=T Step:=T 0=T Bead:=T pbc="F F F"
C      -46.82220000     -31.45580000     -69.62240000
C      -47.16390000     -31.41660000     -70.96520000
C      -46.17820000     -31.12280000     -71.86800000
C      -44.78440000     -31.15450000     -71.45120000
C      -44.45220000     -31.44010000     -70.12720000
C      -45.50860000     -31.43990000     -69.20920000
H      -47.59510000     -31.52350000     -68.81580000
H      -46.42510000     -31.07310000     -72.90510000
H      -43.41740000     -31.51020000     -69.82140000
H      -45.23350000     -31.49710000     -68.15490000
C      -43.68030000     -30.63530000     -72.40770000
H      -42.86480000     -30.15410000     -71.83950000
H      -44.12170000     -29.90620000     -73.07030000
C      -48.58640000     -31.63240000     -71.37530000
H      -49.22230000     -31.44750000     -70.48820000
H      -48.95630000     -31.14730000     -72.29330000
S      -42.80450000     -31.92280000     -73.34110000
S      -48.92980000     -33.42880000     -71.69250000
C      -43.93350000     -33.11740000     -74.10420000
H      -44.91620000     -32.82000000     -73.78210000
H      -43.75690000     -33.01120000     -75.19930000
C      -47.65990000     -33.94620000     -72.94310000
H      -46.90540000     -33.15600000     -73.06270000
H      -48.24240000     -33.84800000     -73.86570000
C      -47.02350000     -35.29290000     -72.50280000
H      -47.82030000     -36.06590000     -72.32610000
H      -46.41710000     -35.81510000     -73.25310000
C      -43.95390000     -34.60380000     -73.66930000
H      -43.15670000     -35.13970000     -74.26300000
H      -44.90390000     -35.08150000     -73.91880000
C      -43.73040000     -34.81250000     -72.20900000
C      -42.51450000     -34.71730000     -71.60580000
C      -44.83010000     -34.86480000     -71.20720000
H      -41.59280000     -34.46360000     -72.11490000
C      -44.35360000     -34.93350000     -69.90730000
C      -46.23550000     -35.17250000     -71.23510000
C      -46.80730000     -35.44660000     -70.00270000
S      -42.60070000     -34.62830000     -69.81740000
S      -45.63740000     -35.16540000     -68.71760000
H      -47.89680000     -35.38790000     -69.85830000
