40
Properties=species:S:1:pos:R:3 #=T CELL(abcABC):=T 1.889726e+02=T 90.00000=T Traj:=T positionsangstrom=T Step:=T 0=T Bead:=T pbc="F F F"
C      -46.39740000     -29.92820000     -72.24430000
C      -47.45460000     -30.88630000     -72.15700000
C      -47.52770000     -31.94410000     -73.04880000
C      -46.53870000     -32.11500000     -74.05000000
C      -45.45150000     -31.21280000     -74.12160000
C      -45.40750000     -30.12980000     -73.18970000
H      -46.34750000     -29.02400000     -71.62490000
H      -48.34940000     -32.66990000     -73.05260000
H      -44.68080000     -31.32480000     -74.96780000
H      -44.72200000     -29.37810000     -73.41320000
C      -46.53440000     -33.38080000     -74.92930000
H      -45.63980000     -33.37220000     -75.60630000
H      -47.40340000     -33.41980000     -75.62440000
C      -48.61940000     -30.69020000     -71.17910000
H      -48.53350000     -29.79490000     -70.49770000
H      -49.60560000     -30.66980000     -71.59770000
S      -46.52420000     -34.92750000     -73.97830000
S      -48.82900000     -32.31990000     -70.27990000
C      -44.85920000     -34.90350000     -73.31410000
H      -44.08150000     -35.10980000     -74.02320000
H      -44.59140000     -33.83710000     -73.03440000
C      -47.22570000     -32.60830000     -69.46990000
H      -47.49800000     -32.92640000     -68.40180000
H      -46.81510000     -31.59030000     -69.43600000
C      -46.32420000     -33.62430000     -70.09650000
H      -46.68420000     -34.65220000     -69.99160000
H      -46.31450000     -33.52430000     -71.22670000
C      -44.80430000     -35.94090000     -72.15640000
H      -44.68070000     -36.95500000     -72.56840000
H      -45.81180000     -35.99390000     -71.61970000
C      -43.69930000     -35.63740000     -71.17800000
C      -42.43150000     -36.16920000     -71.15820000
C      -43.86350000     -34.61300000     -70.15040000
H      -41.99630000     -36.93180000     -71.83590000
C      -42.63870000     -34.43200000     -69.45670000
C      -44.89330000     -33.69080000     -69.58260000
C      -44.43640000     -32.89170000     -68.52800000
S      -41.40400000     -35.53890000     -69.87230000
S      -42.72030000     -33.25400000     -68.16940000
H      -44.84520000     -32.08120000     -68.00030000
