40
Properties=species:S:1:pos:R:3 #=T CELL(abcABC):=T 1.889726e+02=T 90.00000=T Traj:=T positionsangstrom=T Step:=T 0=T Bead:=T pbc="F F F"
C      -47.01260000     -31.77690000     -70.49060000
C      -47.07230000     -31.66190000     -71.91930000
C      -45.99000000     -31.23080000     -72.64630000
C      -44.82690000     -30.77120000     -72.03310000
C      -44.84090000     -30.85190000     -70.64550000
C      -45.87500000     -31.29850000     -69.82900000
H      -47.72210000     -32.31090000     -69.89120000
H      -46.04630000     -31.27760000     -73.78510000
H      -44.02580000     -30.47060000     -70.02800000
H      -45.82170000     -31.29440000     -68.75760000
C      -43.60550000     -30.41550000     -72.94030000
H      -43.02470000     -29.62100000     -72.44720000
H      -43.97120000     -30.13810000     -73.98460000
C      -48.33450000     -32.00210000     -72.66240000
H      -49.21740000     -31.66490000     -72.09840000
H      -48.33690000     -31.58270000     -73.71660000
S      -42.40910000     -31.85340000     -72.80410000
S      -48.52900000     -33.85450000     -72.65820000
C      -43.37690000     -33.31170000     -73.43720000
H      -44.39390000     -33.16990000     -73.37740000
H      -43.08370000     -33.47120000     -74.49110000
C      -46.97620000     -34.55630000     -73.50590000
H      -46.30380000     -33.72470000     -73.50980000
H      -47.20000000     -34.73970000     -74.59270000
C      -46.50700000     -35.74110000     -72.73650000
H      -47.29630000     -36.56290000     -72.67270000
H      -45.59870000     -36.04480000     -73.26070000
C      -43.02220000     -34.56180000     -72.62710000
H      -41.98700000     -34.66870000     -72.71860000
H      -43.40210000     -35.41910000     -73.14060000
C      -43.51160000     -34.61750000     -71.18610000
C      -42.63520000     -34.23160000     -70.19520000
C      -44.80510000     -34.99780000     -70.70840000
H      -41.68610000     -33.84790000     -70.20760000
C      -44.89750000     -34.78050000     -69.33120000
C      -46.11850000     -35.33450000     -71.28290000
C      -47.02510000     -35.42890000     -70.29040000
S      -43.37310000     -34.18080000     -68.55240000
S      -46.52580000     -35.03960000     -68.65580000
H      -48.09240000     -35.58970000     -70.43860000
