40
Properties=species:S:1:pos:R:3 #=T CELL(abcABC):=T 1.889726e+02=T 90.00000=T Traj:=T positionsangstrom=T Step:=T 0=T Bead:=T pbc="F F F"
C      -47.03440000     -31.80940000     -70.52040000
C      -47.15100000     -31.94570000     -71.93280000
C      -46.02710000     -31.55610000     -72.69050000
C      -44.83270000     -31.14810000     -72.06280000
C      -44.75610000     -31.08470000     -70.64200000
C      -45.90290000     -31.35760000     -69.89980000
H      -47.91790000     -32.15920000     -70.03350000
H      -46.11530000     -31.52100000     -73.72630000
H      -43.81660000     -30.86890000     -70.13390000
H      -46.01790000     -31.34700000     -68.82650000
C      -43.71810000     -30.84120000     -73.00320000
H      -43.32400000     -29.87790000     -72.69750000
H      -44.14910000     -30.76370000     -73.98010000
C      -48.37960000     -32.48760000     -72.61050000
H      -49.17660000     -32.17460000     -72.02320000
H      -48.41710000     -31.95930000     -73.56440000
S      -42.26890000     -31.99300000     -73.05930000
S      -48.62680000     -34.28000000     -72.83230000
C      -42.96330000     -33.57090000     -73.49670000
H      -43.97120000     -33.34510000     -73.83410000
H      -42.27160000     -33.94350000     -74.29220000
C      -46.94160000     -34.70190000     -73.43570000
H      -46.27830000     -33.80970000     -73.60400000
H      -47.02320000     -35.10250000     -74.45530000
C      -46.21320000     -35.76580000     -72.55230000
H      -46.84050000     -36.64530000     -72.49840000
H      -45.33770000     -36.12670000     -73.09400000
C      -42.88120000     -34.60700000     -72.37310000
H      -41.85810000     -34.90170000     -72.23470000
H      -43.39340000     -35.53430000     -72.74000000
C      -43.44780000     -34.28380000     -70.98880000
C      -42.69500000     -33.70640000     -69.98690000
C      -44.81100000     -34.59050000     -70.58770000
H      -41.59630000     -33.45270000     -70.16120000
C      -45.04490000     -34.26780000     -69.26470000
C      -45.93600000     -35.33260000     -71.13930000
C      -46.96670000     -35.53730000     -70.21560000
S      -43.63450000     -33.42050000     -68.53350000
S      -46.63880000     -34.72300000     -68.67170000
H      -47.84760000     -36.14330000     -70.34260000
