40
Properties=species:S:1:pos:R:3 #=T CELL(abcABC):=T 1.889726e+02=T 90.00000=T Traj:=T positionsangstrom=T Step:=T 0=T Bead:=T pbc="F F F"
C      -47.18480000     -31.47560000     -70.48020000
C      -47.18950000     -31.40950000     -71.87930000
C      -46.02340000     -31.02340000     -72.58510000
C      -44.80140000     -30.73140000     -71.94780000
C      -44.82990000     -30.90950000     -70.58280000
C      -45.97750000     -31.19320000     -69.86510000
H      -47.99530000     -31.70620000     -69.87700000
H      -46.07630000     -30.86300000     -73.62270000
H      -43.84220000     -30.84550000     -70.07190000
H      -46.05550000     -31.16570000     -68.76390000
C      -43.54880000     -30.43400000     -72.74630000
H      -42.98760000     -29.55250000     -72.43780000
H      -43.89580000     -30.17160000     -73.71360000
C      -48.42670000     -31.89660000     -72.61880000
H      -49.36320000     -31.68970000     -72.16330000
H      -48.48290000     -31.45750000     -73.65060000
S      -42.41890000     -31.90270000     -72.79880000
S      -48.66850000     -33.83200000     -72.62430000
C      -43.57570000     -33.18250000     -73.41310000
H      -44.55070000     -32.94530000     -73.08610000
H      -43.62590000     -33.23390000     -74.53960000
C      -47.05920000     -34.36100000     -73.41860000
H      -46.34940000     -33.58080000     -73.31100000
H      -47.13020000     -34.60870000     -74.45770000
C      -46.39350000     -35.63370000     -72.74010000
H      -47.05430000     -36.45640000     -72.94690000
H      -45.44890000     -35.88890000     -73.28840000
C      -43.12010000     -34.55540000     -72.83990000
H      -42.03540000     -34.71540000     -72.88560000
H      -43.63900000     -35.27490000     -73.54030000
C      -43.47010000     -34.73350000     -71.34720000
C      -42.60090000     -34.33830000     -70.38630000
C      -44.80600000     -34.99930000     -70.74510000
H      -41.58710000     -34.10620000     -70.54080000
C      -44.80100000     -34.85830000     -69.30880000
C      -46.12590000     -35.47220000     -71.21950000
C      -47.00560000     -35.60360000     -70.20700000
S      -43.19340000     -34.43530000     -68.71740000
S      -46.33670000     -35.08800000     -68.57820000
H      -48.03320000     -35.89420000     -70.31240000
