40
Properties=species:S:1:pos:R:3 #=T CELL(abcABC):=T 1.889726e+02=T 90.00000=T Traj:=T positionsangstrom=T Step:=T 0=T Bead:=T pbc="F F F"
C      -47.26970000     -31.48020000     -70.40650000
C      -47.30300000     -31.41420000     -71.80340000
C      -46.06190000     -31.15050000     -72.49660000
C      -44.85880000     -30.80580000     -71.84150000
C      -44.96080000     -30.76410000     -70.43370000
C      -46.11930000     -31.13390000     -69.73630000
H      -48.16780000     -31.63160000     -69.86260000
H      -46.15430000     -31.12980000     -73.57290000
H      -44.06780000     -30.48450000     -69.93480000
H      -46.23500000     -31.28460000     -68.62260000
C      -43.61610000     -30.44290000     -72.60970000
H      -42.96050000     -29.66110000     -72.15390000
H      -43.84910000     -30.15680000     -73.66010000
C      -48.49220000     -31.78130000     -72.64080000
H      -49.48460000     -31.28960000     -72.44780000
H      -48.21600000     -31.48450000     -73.63280000
S      -42.46740000     -31.93290000     -72.79490000
S      -48.73130000     -33.59530000     -72.58720000
C      -43.47710000     -33.24020000     -73.55430000
H      -44.57410000     -32.93120000     -73.54450000
H      -43.21710000     -33.27980000     -74.60870000
C      -47.14330000     -34.25560000     -73.35720000
H      -46.42840000     -33.35750000     -73.39980000
H      -47.45250000     -34.42920000     -74.40280000
C      -46.69520000     -35.53720000     -72.62070000
H      -47.55780000     -36.20330000     -72.51980000
H      -45.99590000     -36.11330000     -73.25780000
C      -43.30210000     -34.69410000     -73.02350000
H      -42.28780000     -35.04930000     -73.40970000
H      -44.05260000     -35.34030000     -73.47200000
C      -43.47310000     -34.70870000     -71.47360000
C      -42.47820000     -34.50170000     -70.56340000
C      -44.77540000     -34.86180000     -70.85150000
H      -41.42700000     -34.40530000     -70.79660000
C      -44.64430000     -34.84330000     -69.43300000
C      -46.10390000     -35.25800000     -71.18050000
C      -46.92540000     -35.38410000     -70.09320000
S      -43.01190000     -34.54840000     -68.85810000
S      -46.06310000     -35.39240000     -68.55020000
H      -47.91760000     -35.80900000     -70.15110000
