40
Properties=species:S:1:pos:R:3 #=T CELL(abcABC):=T 1.889726e+02=T 90.00000=T Traj:=T positionsangstrom=T Step:=T 0=T Bead:=T pbc="F F F"
C      -47.04160000     -31.85730000     -70.50970000
C      -47.14600000     -31.98110000     -71.93740000
C      -46.07550000     -31.55330000     -72.69350000
C      -44.84480000     -31.28210000     -72.09780000
C      -44.75780000     -31.22270000     -70.69510000
C      -45.85370000     -31.50100000     -69.90430000
H      -47.85670000     -32.19040000     -69.86350000
H      -46.16230000     -31.61190000     -73.78810000
H      -43.88110000     -30.80220000     -70.24320000
H      -45.66540000     -31.47410000     -68.85510000
C      -43.65880000     -30.75870000     -72.90130000
H      -43.36860000     -29.73990000     -72.49930000
H      -43.94130000     -30.51690000     -73.92240000
C      -48.44500000     -32.22570000     -72.52340000
H      -49.33270000     -32.15380000     -71.83550000
H      -48.72660000     -31.65430000     -73.46200000
S      -42.21050000     -31.86610000     -72.95900000
S      -48.58030000     -34.04410000     -72.79500000
C      -43.04500000     -33.42240000     -73.41490000
H      -44.17780000     -33.26690000     -73.57080000
H      -42.75690000     -33.78590000     -74.35690000
C      -47.03870000     -34.63040000     -73.60480000
H      -46.40010000     -33.78540000     -73.85000000
H      -47.38660000     -35.09900000     -74.53140000
C      -46.23250000     -35.67800000     -72.67800000
H      -46.76850000     -36.66150000     -72.69440000
H      -45.25870000     -35.90900000     -73.24230000
C      -42.87290000     -34.58830000     -72.37200000
H      -41.78680000     -34.67490000     -72.30190000
H      -43.19990000     -35.46130000     -72.88340000
C      -43.49130000     -34.36420000     -71.05480000
C      -42.82720000     -33.69240000     -70.02780000
C      -44.79330000     -34.79940000     -70.63960000
H      -41.76600000     -33.39060000     -70.12170000
C      -44.99560000     -34.50170000     -69.32420000
C      -46.02230000     -35.31800000     -71.19440000
C      -47.07010000     -35.27670000     -70.25600000
S      -43.65190000     -33.71410000     -68.52890000
S      -46.49990000     -34.82530000     -68.64790000
H      -48.04700000     -35.74580000     -70.42330000
