40
Properties=species:S:1:pos:R:3 #=T CELL(abcABC):=T 1.889726e+02=T 90.00000=T Traj:=T positionsangstrom=T Step:=T 0=T Bead:=T pbc="F F F"
C      -42.86280000     -35.22900000     -74.08370000
C      -42.78970000     -33.86430000     -73.70760000
C      -42.31300000     -33.55820000     -72.45050000
C      -42.18250000     -34.45170000     -71.43680000
C      -42.36430000     -35.82650000     -71.75980000
C      -42.68900000     -36.20050000     -73.03570000
H      -43.04490000     -35.63090000     -75.04690000
H      -42.13020000     -32.48800000     -72.30640000
H      -42.29300000     -36.49410000     -70.86860000
H      -42.67480000     -37.24380000     -73.25320000
C      -41.77790000     -34.08090000     -70.05310000
H      -41.64170000     -33.00060000     -69.82210000
H      -40.83310000     -34.55400000     -69.91770000
C      -43.16730000     -32.79070000     -74.67500000
H      -42.62530000     -31.86660000     -74.45610000
H      -43.02890000     -33.12090000     -75.72380000
S      -42.83480000     -34.74950000     -68.69130000
S      -44.93850000     -32.23900000     -74.45860000
C      -44.33900000     -33.79820000     -69.08580000
H      -44.55830000     -33.03300000     -68.35370000
H      -44.03530000     -33.39050000     -70.05570000
C      -45.84220000     -33.81810000     -74.04600000
H      -45.33690000     -34.77400000     -74.38670000
H      -46.84750000     -33.83480000     -74.41430000
C      -45.94450000     -33.84290000     -72.48640000
H      -46.27760000     -34.83090000     -72.24530000
H      -44.93650000     -33.58570000     -72.02560000
C      -45.64360000     -34.63100000     -69.16180000
H      -45.66700000     -35.32410000     -68.33960000
H      -45.42140000     -35.26110000     -70.02900000
C      -46.83360000     -33.70930000     -69.24320000
C      -47.55160000     -33.33600000     -68.10220000
C      -47.19310000     -32.94140000     -70.47130000
H      -47.32950000     -33.73140000     -67.15330000
C      -48.18830000     -31.92710000     -70.12020000
C      -46.92920000     -32.90440000     -71.88440000
C      -47.69040000     -31.92130000     -72.54110000
S      -48.70240000     -32.03810000     -68.40760000
S      -48.81570000     -31.11040000     -71.51000000
H      -47.54390000     -31.67270000     -73.55310000
