40
Properties=species:S:1:pos:R:3 #=T CELL(abcABC):=T 1.889726e+02=T 90.00000=T Traj:=T positionsangstrom=T Step:=T 0=T Bead:=T pbc="F F F"
C      -47.57070000     -31.94730000     -71.43890000
C      -47.46770000     -32.10890000     -72.81360000
C      -46.21880000     -31.65870000     -73.43210000
C      -45.25120000     -30.98850000     -72.73550000
C      -45.42020000     -30.78980000     -71.30820000
C      -46.60400000     -31.25190000     -70.71840000
H      -48.45480000     -32.38580000     -70.93040000
H      -46.02370000     -31.93710000     -74.49880000
H      -44.63330000     -30.29180000     -70.79560000
H      -46.85740000     -31.03040000     -69.72810000
C      -43.96230000     -30.70480000     -73.51500000
H      -43.57440000     -29.68980000     -73.37910000
H      -44.18290000     -30.83400000     -74.55580000
C      -48.36720000     -33.06990000     -73.48900000
H      -49.41650000     -32.79360000     -73.27270000
H      -48.22810000     -33.17260000     -74.56440000
S      -42.59220000     -31.78700000     -73.07290000
S      -48.24080000     -34.86010000     -72.81020000
C      -43.43110000     -33.40560000     -73.05320000
H      -44.45350000     -33.34050000     -72.69670000
H      -43.62440000     -33.76460000     -74.08880000
C      -46.48180000     -35.18360000     -73.11470000
H      -45.95250000     -34.28250000     -73.15950000
H      -46.38790000     -35.74890000     -74.05190000
C      -45.82960000     -36.06770000     -71.94910000
H      -46.28330000     -37.04980000     -71.93410000
H      -44.80050000     -36.32640000     -72.20340000
C      -42.75880000     -34.36310000     -72.05530000
H      -41.67950000     -34.14100000     -72.02290000
H      -42.86120000     -35.44170000     -72.35320000
C      -43.30670000     -34.05690000     -70.68640000
C      -42.75360000     -33.13880000     -69.84270000
C      -44.54280000     -34.65870000     -70.18320000
H      -41.90500000     -32.56170000     -69.96230000
C      -44.75960000     -34.15500000     -68.90970000
C      -45.72540000     -35.40780000     -70.63430000
C      -46.60990000     -35.49530000     -69.61000000
S      -43.54700000     -33.09890000     -68.25330000
S      -46.23540000     -34.68510000     -68.12890000
H      -47.45540000     -36.11560000     -69.63460000
