40
Properties=species:S:1:pos:R:3 #=T CELL(abcABC):=T 1.889726e+02=T 90.00000=T Traj:=T positionsangstrom=T Step:=T 0=T Bead:=T pbc="F F F"
C      -47.08570000     -31.62990000     -70.64140000
C      -47.15200000     -32.00620000     -71.97130000
C      -46.04200000     -31.73380000     -72.81410000
C      -44.97520000     -30.96550000     -72.31020000
C      -45.03460000     -30.41230000     -71.08340000
C      -46.01330000     -30.86140000     -70.13820000
H      -47.92190000     -31.95490000     -69.97590000
H      -45.94150000     -32.21450000     -73.85800000
H      -44.27080000     -29.67460000     -70.88820000
H      -46.00950000     -30.50860000     -69.11050000
C      -43.79940000     -30.75010000     -73.28110000
H      -43.35650000     -29.78500000     -73.28480000
H      -44.17200000     -30.92550000     -74.30430000
C      -48.33350000     -32.67210000     -72.68860000
H      -49.33440000     -32.41320000     -72.19510000
H      -48.32390000     -32.44410000     -73.76160000
S      -42.41200000     -31.97550000     -72.91420000
S      -48.49380000     -34.51990000     -72.73330000
C      -43.22570000     -33.68850000     -73.30790000
H      -44.28870000     -33.41810000     -73.39900000
H      -42.86440000     -33.92890000     -74.28640000
C      -46.74530000     -35.04840000     -73.28050000
H      -46.20980000     -34.07970000     -73.32670000
H      -46.84600000     -35.52950000     -74.30280000
C      -46.11680000     -36.05670000     -72.34170000
H      -46.88260000     -36.89850000     -72.30290000
H      -45.12530000     -36.38270000     -72.76800000
C      -42.81750000     -34.71730000     -72.27630000
H      -41.74350000     -34.95830000     -72.26680000
H      -43.30790000     -35.66130000     -72.56440000
C      -43.42020000     -34.34530000     -70.97220000
C      -42.72800000     -33.63740000     -70.06190000
C      -44.71200000     -34.73370000     -70.54890000
H      -41.76790000     -33.23730000     -70.23600000
C      -44.98300000     -34.14790000     -69.30060000
C      -45.85180000     -35.52080000     -70.98340000
C      -46.87410000     -35.52390000     -70.06460000
S      -43.64350000     -33.32680000     -68.61810000
S      -46.51410000     -34.63850000     -68.56130000
H      -47.87300000     -35.95900000     -70.08860000
