40
Properties=species:S:1:pos:R:3 #=T CELL(abcABC):=T 1.889726e+02=T 90.00000=T Traj:=T positionsangstrom=T Step:=T 0=T Bead:=T pbc="F F F"
C      -46.44830000     -30.10330000     -72.22330000
C      -47.52290000     -31.01810000     -72.24990000
C      -47.54400000     -32.02000000     -73.23800000
C      -46.53280000     -32.10140000     -74.21490000
C      -45.40850000     -31.23070000     -74.14050000
C      -45.39090000     -30.23170000     -73.14640000
H      -46.35350000     -29.35690000     -71.44190000
H      -48.37210000     -32.78400000     -73.17980000
H      -44.56110000     -31.33750000     -74.86030000
H      -44.44780000     -29.68330000     -73.12170000
C      -46.43670000     -33.25000000     -75.16400000
H      -45.56640000     -33.39510000     -75.62790000
H      -47.27630000     -33.21680000     -75.93200000
C      -48.67470000     -30.94250000     -71.24090000
H      -48.42630000     -29.98270000     -70.71940000
H      -49.64510000     -30.88080000     -71.67420000
S      -46.62950000     -34.93140000     -74.07510000
S      -48.78970000     -32.44560000     -70.12270000
C      -44.93310000     -34.86370000     -73.31470000
H      -44.11990000     -34.92360000     -74.02070000
H      -44.85420000     -33.90640000     -72.77950000
C      -47.03440000     -32.48180000     -69.51330000
H      -46.93720000     -32.70120000     -68.44270000
H      -46.59400000     -31.52200000     -69.62920000
C      -46.16100000     -33.51740000     -70.19080000
H      -46.72760000     -34.50910000     -69.99800000
H      -46.18400000     -33.40040000     -71.26770000
C      -44.87710000     -35.92840000     -72.13310000
H      -44.62980000     -36.92340000     -72.47750000
H      -45.82680000     -36.02260000     -71.62970000
C      -43.77540000     -35.54770000     -71.13980000
C      -42.57300000     -36.18340000     -71.06070000
C      -43.84780000     -34.54760000     -70.02870000
H      -42.17460000     -37.13460000     -71.53100000
C      -42.60970000     -34.37540000     -69.35560000
C      -44.82000000     -33.58810000     -69.58030000
C      -44.39170000     -32.74550000     -68.58380000
S      -41.40400000     -35.59530000     -69.80110000
S      -42.73440000     -33.10530000     -68.10880000
H      -44.84300000     -31.83940000     -68.24560000
