40
Properties=species:S:1:pos:R:3 #=T CELL(abcABC):=T 1.889726e+02=T 90.00000=T Traj:=T positionsangstrom=T Step:=T 0=T Bead:=T pbc="F F F"
C      -47.09840000     -31.62220000     -70.57690000
C      -47.16210000     -31.98730000     -71.89410000
C      -45.99050000     -31.80960000     -72.74050000
C      -44.88510000     -31.12660000     -72.21520000
C      -44.87770000     -30.76200000     -70.85370000
C      -45.92620000     -31.07970000     -70.01830000
H      -47.98380000     -31.80580000     -69.90680000
H      -46.13290000     -32.16900000     -73.79820000
H      -43.94410000     -30.32420000     -70.57860000
H      -46.05530000     -30.81660000     -68.95030000
C      -43.67290000     -30.85880000     -73.00090000
H      -43.20880000     -29.94950000     -72.60920000
H      -43.91830000     -30.74400000     -74.12400000
C      -48.43120000     -32.51220000     -72.49170000
H      -49.32990000     -32.25630000     -71.90190000
H      -48.63840000     -32.04500000     -73.47130000
S      -42.30600000     -32.06930000     -72.97650000
S      -48.45420000     -34.43250000     -72.71100000
C      -43.17750000     -33.64570000     -73.46210000
H      -44.23990000     -33.52560000     -73.54180000
H      -42.87960000     -33.97120000     -74.48700000
C      -46.84950000     -34.97350000     -73.39620000
H      -46.23980000     -34.10250000     -73.62400000
H      -47.02490000     -35.52260000     -74.32980000
C      -46.14300000     -35.92750000     -72.45480000
H      -46.68710000     -36.87400000     -72.40160000
H      -45.14670000     -36.11500000     -72.87180000
C      -42.80180000     -34.64530000     -72.36920000
H      -41.72250000     -34.53140000     -72.33670000
H      -43.08310000     -35.73010000     -72.53720000
C      -43.47810000     -34.30290000     -71.05120000
C      -42.74460000     -33.63990000     -70.10750000
C      -44.80070000     -34.64000000     -70.53340000
H      -41.75110000     -33.24880000     -70.39900000
C      -45.03870000     -34.14980000     -69.22160000
C      -45.98920000     -35.33390000     -71.10070000
C      -47.02320000     -35.39370000     -70.16550000
S      -43.63160000     -33.34720000     -68.66880000
S      -46.61120000     -34.64350000     -68.65000000
H      -48.03120000     -35.71640000     -70.26730000
