40
Properties=species:S:1:pos:R:3 #=T CELL(abcABC):=T 1.889726e+02=T 90.00000=T Traj:=T positionsangstrom=T Step:=T 0=T Bead:=T pbc="F F F"
C      -47.51420000     -31.79920000     -71.32280000
C      -47.35760000     -32.10920000     -72.76900000
C      -46.21430000     -31.74580000     -73.44900000
C      -45.18580000     -31.04670000     -72.71610000
C      -45.41270000     -30.69260000     -71.40970000
C      -46.48770000     -31.11790000     -70.69790000
H      -48.38890000     -32.29100000     -70.88370000
H      -46.11340000     -31.83710000     -74.48200000
H      -44.58510000     -30.17470000     -71.04730000
H      -46.55290000     -30.76520000     -69.73270000
C      -43.92240000     -30.53230000     -73.33610000
H      -43.51640000     -29.60840000     -72.82800000
H      -43.95000000     -30.35450000     -74.38520000
C      -48.44840000     -32.98310000     -73.38120000
H      -49.44450000     -32.69260000     -73.15370000
H      -48.35550000     -33.10260000     -74.50460000
S      -42.53410000     -31.73460000     -72.98720000
S      -48.39600000     -34.71840000     -72.65210000
C      -43.05030000     -33.47680000     -73.29130000
H      -44.10800000     -33.44170000     -73.54060000
H      -42.35340000     -33.77060000     -74.10140000
C      -46.61770000     -35.16680000     -73.08750000
H      -46.05200000     -34.17870000     -73.28780000
H      -46.67150000     -35.57370000     -74.11610000
C      -45.92100000     -36.05560000     -72.04420000
H      -46.40640000     -37.02910000     -71.97500000
H      -44.85780000     -36.26110000     -72.38800000
C      -42.80450000     -34.47130000     -72.17770000
H      -41.75660000     -34.69730000     -72.08690000
H      -43.22960000     -35.35240000     -72.63710000
C      -43.31980000     -34.16790000     -70.71720000
C      -42.58650000     -33.43790000     -69.78600000
C      -44.64460000     -34.53500000     -70.25660000
H      -41.57210000     -33.24380000     -69.83280000
C      -44.89930000     -34.04380000     -68.95550000
C      -45.72580000     -35.40850000     -70.68700000
C      -46.67100000     -35.66950000     -69.72530000
S      -43.51370000     -33.21050000     -68.29140000
S      -46.31760000     -34.77060000     -68.18290000
H      -47.52170000     -36.34360000     -69.85070000
