40
Properties=species:S:1:pos:R:3 #=T CELL(abcABC):=T 1.889726e+02=T 90.00000=T Traj:=T positionsangstrom=T Step:=T 0=T Bead:=T pbc="F F F"
C      -47.45130000     -31.72280000     -71.09100000
C      -47.38920000     -32.08170000     -72.45620000
C      -46.27380000     -31.70280000     -73.20860000
C      -45.13030000     -31.09440000     -72.62070000
C      -45.25350000     -30.63020000     -71.29570000
C      -46.39740000     -30.88530000     -70.56180000
H      -48.32600000     -32.02180000     -70.52020000
H      -46.15880000     -32.01880000     -74.26210000
H      -44.42370000     -30.07230000     -70.85040000
H      -46.33740000     -30.56890000     -69.53350000
C      -43.87630000     -30.85430000     -73.45590000
H      -43.58790000     -29.76290000     -73.49680000
H      -44.20210000     -31.11490000     -74.51230000
C      -48.38100000     -32.87860000     -73.19310000
H      -49.34820000     -32.38780000     -73.10120000
H      -47.95210000     -32.81410000     -74.17960000
S      -42.37690000     -31.70470000     -72.88780000
S      -48.40610000     -34.64120000     -72.64180000
C      -42.99250000     -33.45380000     -73.32630000
H      -44.10800000     -33.37350000     -73.43360000
H      -42.63010000     -33.81480000     -74.26290000
C      -46.72020000     -35.17120000     -73.15110000
H      -46.06760000     -34.31790000     -73.34260000
H      -46.74460000     -35.77600000     -74.04920000
C      -46.13680000     -36.09300000     -72.10540000
H      -46.82710000     -36.90690000     -71.97490000
H      -45.21960000     -36.39820000     -72.52280000
C      -42.69840000     -34.44390000     -72.25800000
H      -41.57410000     -34.41570000     -72.13690000
H      -42.93240000     -35.48350000     -72.50910000
C      -43.40490000     -34.16580000     -70.88240000
C      -42.69130000     -33.42820000     -69.97280000
C      -44.71100000     -34.62450000     -70.36610000
H      -41.70880000     -33.07610000     -70.14280000
C      -44.84970000     -34.21120000     -69.01700000
C      -45.86890000     -35.42020000     -70.79290000
C      -46.82290000     -35.47860000     -69.78930000
S      -43.45770000     -33.38260000     -68.40030000
S      -46.40490000     -34.76420000     -68.28700000
H      -47.80730000     -35.95470000     -69.88580000
