40
Properties=species:S:1:pos:R:3 #=T CELL(abcABC):=T 1.889726e+02=T 90.00000=T Traj:=T positionsangstrom=T Step:=T 0=T Bead:=T pbc="F F F"
C      -41.94790000     -31.82920000     -71.41840000
C      -42.56520000     -31.68460000     -70.13160000
C      -43.57510000     -30.70680000     -69.99040000
C      -44.11530000     -30.07210000     -71.15590000
C      -43.51900000     -30.32000000     -72.44090000
C      -42.43310000     -31.14360000     -72.48750000
H      -41.15290000     -32.50530000     -71.50960000
H      -44.05640000     -30.69150000     -69.02140000
H      -43.90570000     -29.94630000     -73.43470000
H      -41.92240000     -31.22490000     -73.41720000
C      -45.28120000     -29.24760000     -70.92490000
H      -45.61730000     -28.74150000     -71.84370000
H      -45.05710000     -28.46940000     -70.18650000
C      -42.24580000     -32.54130000     -69.01240000
H      -41.21770000     -32.38440000     -68.77610000
H      -42.90490000     -32.36870000     -68.16970000
S      -46.77310000     -30.19080000     -70.09810000
S      -42.23040000     -34.30530000     -69.54470000
C      -46.98850000     -31.66090000     -71.07990000
H      -47.79630000     -31.41330000     -71.79370000
H      -46.06260000     -31.94730000     -71.68400000
C      -43.94990000     -34.55410000     -70.03800000
H      -44.61120000     -34.02720000     -69.46750000
H      -44.15290000     -35.61600000     -69.87930000
C      -44.17400000     -34.16120000     -71.52260000
H      -44.53440000     -33.09170000     -71.66020000
H      -43.32860000     -34.23820000     -72.16320000
C      -47.22390000     -33.05620000     -70.28650000
H      -48.02130000     -32.90670000     -69.64600000
H      -46.38630000     -33.32430000     -69.63310000
C      -47.61340000     -34.14160000     -71.26730000
C      -48.92010000     -34.59690000     -71.41790000
C      -46.65570000     -34.95780000     -71.93700000
H      -49.85090000     -34.03410000     -71.28710000
C      -47.27980000     -36.00350000     -72.60300000
C      -45.17680000     -35.09740000     -72.02370000
C      -44.81490000     -36.18970000     -72.73040000
S      -49.05840000     -35.93850000     -72.56360000
S      -46.16030000     -36.97720000     -73.54780000
H      -43.71470000     -36.45380000     -72.92670000
