40
Properties=species:S:1:pos:R:3 #=T CELL(abcABC):=T 1.889726e+02=T 90.00000=T Traj:=T positionsangstrom=T Step:=T 0=T Bead:=T pbc="F F F"
C      -47.68530000     -32.11130000     -71.16350000
C      -47.44400000     -32.89160000     -72.32720000
C      -46.38700000     -32.38730000     -73.18480000
C      -45.66340000     -31.22220000     -72.81830000
C      -45.77580000     -30.70180000     -71.47340000
C      -46.88710000     -31.07900000     -70.71150000
H      -48.55300000     -32.41120000     -70.48210000
H      -46.30340000     -32.71450000     -74.20010000
H      -45.19810000     -29.81830000     -71.19830000
H      -47.05460000     -30.66230000     -69.71510000
C      -44.40140000     -30.78930000     -73.63510000
H      -44.30240000     -29.70370000     -73.54930000
H      -44.54810000     -30.84260000     -74.75450000
C      -48.32080000     -33.94340000     -72.88910000
H      -49.29760000     -33.85930000     -72.51890000
H      -48.48520000     -33.77100000     -74.00410000
S      -42.79000000     -31.53660000     -73.21320000
S      -47.90590000     -35.68590000     -72.58280000
C      -43.03920000     -33.34360000     -73.25600000
H      -44.13440000     -33.59870000     -73.34350000
H      -42.60820000     -33.68850000     -74.20670000
C      -45.98850000     -35.85210000     -72.87390000
H      -45.70260000     -34.82900000     -73.10290000
H      -45.81820000     -36.52440000     -73.75360000
C      -45.12420000     -36.32870000     -71.60040000
H      -45.42640000     -37.32820000     -71.28850000
H      -44.16800000     -36.43430000     -71.94780000
C      -42.53220000     -34.11750000     -72.06220000
H      -41.49250000     -34.03060000     -71.91500000
H      -42.75770000     -35.13910000     -72.30400000
C      -43.27900000     -33.68600000     -70.79380000
C      -42.81580000     -32.68000000     -69.97800000
C      -44.47060000     -34.24970000     -70.22680000
H      -42.03030000     -32.04080000     -70.17470000
C      -44.93960000     -33.54260000     -69.16390000
C      -45.37940000     -35.35710000     -70.50190000
C      -46.38690000     -35.56660000     -69.62100000
S      -43.73570000     -32.42940000     -68.53770000
S      -46.44310000     -34.16680000     -68.44020000
H      -47.09720000     -36.34170000     -69.59560000
