40
Properties=species:S:1:pos:R:3 #=T CELL(abcABC):=T 1.889726e+02=T 90.00000=T Traj:=T positionsangstrom=T Step:=T 0=T Bead:=T pbc="F F F"
C      -47.63170000     -32.35390000     -71.28070000
C      -47.44820000     -32.95110000     -72.56180000
C      -46.47970000     -32.42340000     -73.42630000
C      -45.73270000     -31.27650000     -73.08700000
C      -45.93780000     -30.68870000     -71.78510000
C      -46.83450000     -31.25300000     -70.90440000
H      -48.38900000     -32.85130000     -70.71390000
H      -46.45040000     -32.64730000     -74.49810000
H      -45.43680000     -29.83290000     -71.30000000
H      -47.03900000     -30.85730000     -69.86770000
C      -44.55610000     -30.91220000     -74.02040000
H      -44.40780000     -29.85920000     -74.20420000
H      -44.59330000     -31.33910000     -75.05000000
C      -48.31640000     -34.11960000     -73.10960000
H      -49.41610000     -33.98270000     -72.84220000
H      -48.36900000     -34.21220000     -74.19610000
S      -42.97050000     -31.53240000     -73.28670000
S      -47.88300000     -35.74250000     -72.22090000
C      -43.18830000     -33.36360000     -73.34270000
H      -44.20960000     -33.61580000     -73.57500000
H      -42.62670000     -33.78280000     -74.18950000
C      -46.11530000     -36.01690000     -72.79550000
H      -45.75010000     -35.14070000     -73.29750000
H      -46.10270000     -36.85110000     -73.46620000
C      -45.27020000     -36.33530000     -71.52520000
H      -45.69760000     -37.22820000     -71.14090000
H      -44.28650000     -36.53640000     -71.78850000
C      -42.62110000     -34.03100000     -72.02860000
H      -41.58300000     -33.85700000     -71.83860000
H      -42.72220000     -35.06080000     -72.22960000
C      -43.24770000     -33.62410000     -70.73210000
C      -42.75630000     -32.48670000     -70.15010000
C      -44.42570000     -34.21450000     -70.08760000
H      -42.11100000     -31.76340000     -70.60260000
C      -44.83600000     -33.47440000     -68.95910000
C      -45.36840000     -35.35600000     -70.35590000
C      -46.18860000     -35.48630000     -69.27050000
S      -43.73360000     -32.06220000     -68.71850000
S      -46.08450000     -34.23080000     -68.06130000
H      -47.07040000     -36.13180000     -69.12420000
