40
Properties=species:S:1:pos:R:3 #=T CELL(abcABC):=T 1.889726e+02=T 90.00000=T Traj:=T positionsangstrom=T Step:=T 0=T Bead:=T pbc="F F F"
C      -47.63570000     -32.34430000     -71.10250000
C      -47.42370000     -32.99000000     -72.39720000
C      -46.49650000     -32.38450000     -73.26160000
C      -45.66930000     -31.31020000     -72.83860000
C      -45.77910000     -30.79990000     -71.55780000
C      -46.80700000     -31.32180000     -70.73030000
H      -48.34460000     -32.70640000     -70.34320000
H      -46.24510000     -32.74670000     -74.17960000
H      -44.95900000     -30.12040000     -71.15320000
H      -46.93590000     -31.02680000     -69.66880000
C      -44.59820000     -30.82040000     -73.81010000
H      -44.48630000     -29.73310000     -73.77830000
H      -44.76230000     -31.26280000     -74.78530000
C      -48.34300000     -34.01600000     -72.90560000
H      -49.24520000     -33.84690000     -72.30910000
H      -48.47790000     -33.93510000     -74.02380000
S      -42.77460000     -31.47960000     -73.34060000
S      -47.79650000     -35.69860000     -72.49750000
C      -43.10030000     -33.28270000     -73.20540000
H      -44.16900000     -33.45130000     -73.11290000
H      -42.76620000     -33.75160000     -74.12910000
C      -46.08820000     -35.87190000     -72.98330000
H      -45.75570000     -34.91520000     -73.45810000
H      -45.87460000     -36.58570000     -73.75330000
C      -45.30430000     -36.25910000     -71.71690000
H      -45.74970000     -37.24090000     -71.30700000
H      -44.21590000     -36.33750000     -71.94310000
C      -42.50470000     -34.03360000     -71.95990000
H      -41.34900000     -33.83630000     -71.82370000
H      -42.62660000     -35.12220000     -72.16680000
C      -43.20750000     -33.63370000     -70.70020000
C      -42.75490000     -32.60800000     -69.89100000
C      -44.43170000     -34.25100000     -70.18350000
H      -41.98470000     -32.02730000     -70.24040000
C      -44.76630000     -33.70410000     -68.92890000
C      -45.37730000     -35.28520000     -70.53120000
C      -46.43320000     -35.34040000     -69.64070000
S      -43.93080000     -32.22680000     -68.59420000
S      -46.29320000     -34.23000000     -68.32820000
H      -47.16490000     -36.08290000     -69.54240000
