40
Properties=species:S:1:pos:R:3 #=T CELL(abcABC):=T 1.889726e+02=T 90.00000=T Traj:=T positionsangstrom=T Step:=T 0=T Bead:=T pbc="F F F"
C      -46.69970000     -30.28900000     -72.26950000
C      -47.72230000     -31.24880000     -72.29900000
C      -47.75370000     -32.21550000     -73.32360000
C      -46.57660000     -32.46060000     -74.07490000
C      -45.50310000     -31.56290000     -73.94560000
C      -45.55040000     -30.52680000     -73.02550000
H      -46.74300000     -29.53300000     -71.48800000
H      -48.53600000     -32.86910000     -73.41940000
H      -44.69200000     -31.74000000     -74.57320000
H      -44.77210000     -29.78650000     -73.01620000
C      -46.54210000     -33.52760000     -75.12840000
H      -45.63790000     -33.40750000     -75.82130000
H      -47.44600000     -33.50390000     -75.71270000
C      -48.87890000     -31.07730000     -71.39290000
H      -48.95870000     -30.12910000     -70.86400000
H      -49.82490000     -31.25880000     -71.97700000
S      -46.36060000     -35.19540000     -74.32720000
S      -48.79250000     -32.25120000     -70.00950000
C      -45.00850000     -34.76350000     -73.10190000
H      -44.02260000     -34.81780000     -73.61280000
H      -44.96560000     -33.72120000     -72.80660000
C      -47.01340000     -32.15400000     -69.38330000
H      -46.99670000     -32.54160000     -68.38890000
H      -46.70240000     -31.07050000     -69.33890000
C      -46.01960000     -33.03580000     -70.18580000
H      -46.52530000     -33.97830000     -70.44530000
H      -45.96180000     -32.49750000     -71.19950000
C      -45.03410000     -35.80770000     -71.92020000
H      -44.96530000     -36.87160000     -72.19680000
H      -46.00390000     -35.83620000     -71.39750000
C      -43.90720000     -35.48700000     -70.95750000
C      -42.75580000     -36.17870000     -70.91570000
C      -43.77430000     -34.31270000     -70.05540000
H      -42.39980000     -37.04970000     -71.54740000
C      -42.56800000     -34.35080000     -69.38580000
C      -44.67690000     -33.27370000     -69.60920000
C      -44.12880000     -32.49600000     -68.57820000
S      -41.44080000     -35.57650000     -69.88660000
S      -42.46550000     -33.05580000     -68.26780000
H      -44.75770000     -31.77300000     -68.08930000
