40
Properties=species:S:1:pos:R:3 #=T CELL(abcABC):=T 1.889726e+02=T 90.00000=T Traj:=T positionsangstrom=T Step:=T 0=T Bead:=T pbc="F F F"
C      -48.01150000     -32.59190000     -71.80390000
C      -47.63000000     -33.22410000     -73.00810000
C      -46.46510000     -32.72240000     -73.62830000
C      -45.70580000     -31.70610000     -73.07390000
C      -46.12970000     -30.99680000     -71.93900000
C      -47.34460000     -31.48100000     -71.38400000
H      -48.82460000     -32.98790000     -71.17760000
H      -46.04620000     -33.22010000     -74.51480000
H      -45.54650000     -30.15250000     -71.55020000
H      -47.60550000     -30.82230000     -70.39990000
C      -44.52760000     -31.25220000     -73.92660000
H      -44.56710000     -30.11520000     -73.91170000
H      -44.70110000     -31.59980000     -74.96170000
C      -48.30980000     -34.47540000     -73.53970000
H      -49.42820000     -34.36450000     -73.55190000
H      -47.82980000     -34.77600000     -74.52350000
S      -42.80460000     -31.65500000     -73.22590000
S      -47.94270000     -35.92500000     -72.31390000
C      -42.88170000     -33.51540000     -73.20120000
H      -43.85650000     -33.84640000     -73.55510000
H      -42.07200000     -33.89790000     -73.89580000
C      -46.08740000     -36.00810000     -72.35810000
H      -45.69170000     -35.20710000     -72.94010000
H      -45.90710000     -36.87220000     -72.98130000
C      -45.16310000     -36.25920000     -70.99670000
H      -45.64690000     -37.10810000     -70.60530000
H      -44.18640000     -36.49870000     -71.25970000
C      -42.44570000     -34.10020000     -71.84990000
H      -41.42680000     -33.88440000     -71.60280000
H      -42.45630000     -35.12770000     -71.96290000
C      -43.21110000     -33.41000000     -70.68560000
C      -42.72110000     -32.27980000     -70.02540000
C      -44.39340000     -33.96240000     -69.96750000
H      -41.80530000     -31.70420000     -70.29020000
C      -44.71670000     -33.15870000     -68.94210000
C      -45.18970000     -35.18880000     -70.02060000
C      -46.13780000     -35.18610000     -69.04100000
S      -43.79880000     -31.70900000     -68.75920000
S      -46.13580000     -33.76680000     -68.03890000
H      -46.93880000     -35.92990000     -68.99970000
