40
Properties=species:S:1:pos:R:3 #=T CELL(abcABC):=T 1.889726e+02=T 90.00000=T Traj:=T positionsangstrom=T Step:=T 0=T Bead:=T pbc="F F F"
C      -47.80740000     -32.72680000     -71.77750000
C      -47.45660000     -33.41350000     -72.93370000
C      -46.42120000     -32.92140000     -73.76600000
C      -45.71770000     -31.72050000     -73.39900000
C      -46.13270000     -31.01190000     -72.20750000
C      -47.15910000     -31.50400000     -71.44760000
H      -48.57320000     -33.14680000     -71.06170000
H      -46.05710000     -33.59390000     -74.51080000
H      -45.51080000     -30.13900000     -71.82520000
H      -47.51410000     -31.03840000     -70.62010000
C      -44.53280000     -31.29360000     -74.18020000
H      -44.58360000     -30.18320000     -74.44520000
H      -44.39430000     -31.83420000     -75.13940000
C      -48.13270000     -34.72220000     -73.29770000
H      -49.17120000     -34.70390000     -73.15570000
H      -48.04770000     -34.86090000     -74.39540000
S      -42.91450000     -31.74030000     -73.33210000
S      -47.53770000     -36.11180000     -72.27110000
C      -43.13100000     -33.55910000     -73.09720000
H      -44.16950000     -33.67460000     -73.17570000
H      -42.63330000     -34.10140000     -73.92250000
C      -45.71310000     -36.03490000     -72.32380000
H      -45.54620000     -35.08280000     -72.85240000
H      -45.24870000     -36.80660000     -72.96870000
C      -45.20660000     -36.19690000     -70.94960000
H      -45.73370000     -37.03100000     -70.53230000
H      -44.17130000     -36.49760000     -70.99020000
C      -42.62600000     -34.05270000     -71.70810000
H      -41.52670000     -34.00010000     -71.67200000
H      -42.81130000     -35.12160000     -71.81030000
C      -43.27680000     -33.46790000     -70.48980000
C      -42.78790000     -32.26870000     -70.00530000
C      -44.43080000     -33.89220000     -69.81340000
H      -41.89140000     -31.78970000     -70.45190000
C      -44.83700000     -32.97620000     -68.84230000
C      -45.34920000     -35.02190000     -70.03050000
C      -46.41750000     -34.90480000     -69.15220000
S      -43.77810000     -31.62550000     -68.65770000
S      -46.41920000     -33.47830000     -68.06780000
H      -47.21380000     -35.66120000     -69.09120000
