40
Properties=species:S:1:pos:R:3 #=T CELL(abcABC):=T 1.889726e+02=T 90.00000=T Traj:=T positionsangstrom=T Step:=T 0=T Bead:=T pbc="F F F"
C      -41.13720000     -32.50550000     -71.51690000
C      -41.89740000     -32.40540000     -70.33900000
C      -42.85920000     -31.37190000     -70.34780000
C      -43.00120000     -30.48450000     -71.41340000
C      -42.22030000     -30.59430000     -72.52110000
C      -41.24570000     -31.54720000     -72.51050000
H      -40.39870000     -33.26880000     -71.61610000
H      -43.47820000     -31.18260000     -69.41580000
H      -42.40660000     -29.87020000     -73.38730000
H      -40.62940000     -31.70630000     -73.38900000
C      -44.10310000     -29.42940000     -71.38510000
H      -44.16590000     -28.94290000     -72.42970000
H      -43.89090000     -28.66200000     -70.68840000
C      -41.74650000     -33.40990000     -69.20230000
H      -40.70800000     -33.57080000     -68.83900000
H      -42.38560000     -33.09440000     -68.32450000
S      -45.74400000     -29.97130000     -70.57090000
S      -42.44640000     -35.10110000     -69.68300000
C      -46.60210000     -31.28880000     -71.59890000
H      -47.51180000     -30.77840000     -72.15640000
H      -45.98570000     -31.88140000     -72.28620000
C      -44.24400000     -34.72980000     -69.98650000
H      -44.55530000     -34.05150000     -69.21200000
H      -44.85850000     -35.64930000     -69.67300000
C      -44.59290000     -34.50380000     -71.50880000
H      -44.42810000     -33.53670000     -71.95560000
H      -43.84700000     -35.01540000     -72.09720000
C      -47.21120000     -32.22380000     -70.55820000
H      -47.82270000     -31.64750000     -69.85970000
H      -46.40840000     -32.45070000     -69.88970000
C      -47.86050000     -33.43630000     -71.11420000
C      -49.24610000     -33.48560000     -71.12570000
C      -47.28040000     -34.59540000     -71.78620000
H      -49.92560000     -32.85810000     -70.49590000
C      -48.23070000     -35.46980000     -72.30320000
C      -45.94580000     -35.11860000     -72.02820000
C      -45.95450000     -36.31030000     -72.71420000
S      -49.83280000     -35.03380000     -71.77820000
S      -47.54250000     -36.90010000     -73.09110000
H      -45.09300000     -36.84960000     -73.08070000
