40
Properties=species:S:1:pos:R:3 #=T CELL(abcABC):=T 1.889726e+02=T 90.00000=T Traj:=T positionsangstrom=T Step:=T 0=T Bead:=T pbc="F F F"
C      -47.81140000     -32.79790000     -71.77140000
C      -47.41090000     -33.61760000     -72.84910000
C      -46.35180000     -33.17610000     -73.71100000
C      -45.59180000     -32.08830000     -73.37640000
C      -45.89440000     -31.35250000     -72.23250000
C      -47.00910000     -31.64230000     -71.49520000
H      -48.59540000     -33.04320000     -71.18240000
H      -46.15150000     -33.87910000     -74.52380000
H      -45.24070000     -30.50540000     -72.00270000
H      -47.36240000     -31.00290000     -70.57460000
C      -44.45670000     -31.74600000     -74.26710000
H      -44.31220000     -30.69220000     -74.55910000
H      -44.69380000     -32.26730000     -75.17550000
C      -48.17350000     -34.88530000     -73.13280000
H      -49.15950000     -34.66540000     -73.06210000
H      -47.91720000     -35.20160000     -74.17320000
S      -42.78390000     -32.10100000     -73.50690000
S      -47.77460000     -36.18430000     -71.97240000
C      -42.75470000     -33.87480000     -72.98680000
H      -43.76010000     -34.21340000     -73.05490000
H      -42.03540000     -34.57860000     -73.50440000
C      -45.90110000     -36.31600000     -72.06750000
H      -45.39010000     -35.56010000     -72.64500000
H      -45.59080000     -37.27150000     -72.50740000
C      -45.09260000     -36.16470000     -70.73520000
H      -45.20480000     -36.97880000     -70.03350000
H      -44.08530000     -36.22810000     -71.14930000
C      -42.37770000     -33.86710000     -71.47850000
H      -41.44080000     -33.34110000     -71.32670000
H      -42.37080000     -35.01350000     -71.25900000
C      -43.26860000     -33.07870000     -70.56620000
C      -42.88210000     -31.86740000     -70.07970000
C      -44.46070000     -33.60210000     -69.94360000
H      -41.84990000     -31.47320000     -70.09050000
C      -45.02500000     -32.70280000     -69.03040000
C      -45.31690000     -34.77640000     -70.02240000
C      -46.44280000     -34.71230000     -69.19000000
S      -43.99610000     -31.21960000     -68.83100000
S      -46.51390000     -33.16940000     -68.28700000
H      -47.20270000     -35.41290000     -69.03970000
