40
Properties=species:S:1:pos:R:3 #=T CELL(abcABC):=T 1.889726e+02=T 90.00000=T Traj:=T positionsangstrom=T Step:=T 0=T Bead:=T pbc="F F F"
C      -47.79640000     -32.53020000     -72.01140000
C      -47.43620000     -33.65470000     -72.76580000
C      -46.29640000     -33.53930000     -73.66810000
C      -45.66590000     -32.34660000     -73.88090000
C      -46.11200000     -31.19680000     -73.22980000
C      -47.17030000     -31.29600000     -72.28720000
H      -48.62770000     -32.57360000     -71.29780000
H      -46.07200000     -34.39300000     -74.32300000
H      -45.58960000     -30.29490000     -73.32450000
H      -47.45320000     -30.46100000     -71.78540000
C      -44.35270000     -32.30430000     -74.68190000
H      -44.35660000     -31.40530000     -75.30460000
H      -44.16070000     -33.08370000     -75.38520000
C      -48.05560000     -35.00020000     -72.68970000
H      -49.17270000     -34.86200000     -72.66480000
H      -47.88550000     -35.44330000     -73.68850000
S      -42.92680000     -32.20660000     -73.50200000
S      -47.51200000     -36.13210000     -71.27200000
C      -42.72040000     -33.95550000     -72.82840000
H      -43.73080000     -34.40510000     -72.96830000
H      -41.92980000     -34.57660000     -73.33330000
C      -45.64740000     -36.30410000     -71.63870000
H      -45.44490000     -35.47240000     -72.36140000
H      -45.52800000     -37.33380000     -72.10220000
C      -44.86800000     -36.16110000     -70.26010000
H      -45.30950000     -36.94400000     -69.59290000
H      -43.80430000     -36.39510000     -70.37230000
C      -42.30390000     -33.92290000     -71.36250000
H      -41.22370000     -33.51950000     -71.31130000
H      -42.34160000     -34.93590000     -70.82590000
C      -43.25760000     -33.08340000     -70.53380000
C      -43.09500000     -31.73630000     -70.37050000
C      -44.46180000     -33.54160000     -69.82530000
H      -42.23760000     -31.20510000     -70.68890000
C      -45.10300000     -32.54110000     -69.13690000
C      -45.15030000     -34.82080000     -69.66610000
C      -46.27300000     -34.72830000     -68.87810000
S      -44.28980000     -31.00450000     -69.31800000
S      -46.52900000     -33.13590000     -68.21210000
H      -46.91210000     -35.52850000     -68.57200000
