40
Properties=species:S:1:pos:R:3 #=T CELL(abcABC):=T 1.889726e+02=T 90.00000=T Traj:=T positionsangstrom=T Step:=T 0=T Bead:=T pbc="F F F"
C      -47.97980000     -32.73790000     -71.91000000
C      -47.49670000     -33.63830000     -72.91730000
C      -46.34650000     -33.41810000     -73.60010000
C      -45.57230000     -32.17850000     -73.42790000
C      -46.02150000     -31.33350000     -72.42540000
C      -47.20740000     -31.55250000     -71.69160000
H      -48.84130000     -32.92480000     -71.32200000
H      -46.20330000     -34.09620000     -74.45050000
H      -45.36590000     -30.44120000     -72.19360000
H      -47.70360000     -30.97460000     -70.84210000
C      -44.34590000     -31.97350000     -74.30540000
H      -44.33020000     -31.00440000     -74.82600000
H      -44.44460000     -32.75350000     -75.09240000
C      -48.28860000     -34.93860000     -72.99970000
H      -49.34200000     -34.81070000     -72.83630000
H      -48.24910000     -35.60580000     -73.93110000
S      -42.66940000     -32.14350000     -73.51630000
S      -47.65840000     -36.10000000     -71.64130000
C      -42.75070000     -33.87940000     -72.82670000
H      -43.81070000     -34.19830000     -72.93960000
H      -42.17110000     -34.50190000     -73.49880000
C      -45.89620000     -36.07170000     -71.93800000
H      -45.53220000     -35.13650000     -72.50510000
H      -45.75260000     -36.95560000     -72.58920000
C      -45.04670000     -36.12910000     -70.70520000
H      -45.08880000     -37.06290000     -70.10910000
H      -44.01780000     -36.14030000     -71.19270000
C      -42.32220000     -33.96310000     -71.41060000
H      -41.26130000     -33.47050000     -71.34840000
H      -42.26200000     -35.01130000     -70.95290000
C      -43.19510000     -33.14310000     -70.49150000
C      -42.88900000     -31.88750000     -70.09700000
C      -44.51510000     -33.63210000     -70.03110000
H      -42.04060000     -31.28150000     -70.43230000
C      -45.02600000     -32.66290000     -69.11270000
C      -45.25730000     -34.83670000     -69.88730000
C      -46.37480000     -34.71910000     -69.02700000
S      -44.16420000     -31.12820000     -69.19620000
S      -46.42290000     -33.12650000     -68.29120000
H      -47.14300000     -35.46390000     -68.84880000
