40
Properties=species:S:1:pos:R:3 #=T CELL(abcABC):=T 1.889726e+02=T 90.00000=T Traj:=T positionsangstrom=T Step:=T 0=T Bead:=T pbc="F F F"
C      -47.82920000     -32.91370000     -72.33940000
C      -47.32550000     -33.97950000     -73.02280000
C      -46.18500000     -33.73640000     -73.86200000
C      -45.52630000     -32.50950000     -73.98510000
C      -46.06890000     -31.42640000     -73.25640000
C      -47.17110000     -31.65460000     -72.42720000
H      -48.71030000     -32.96740000     -71.69740000
H      -45.79520000     -34.54890000     -74.59750000
H      -45.62680000     -30.49780000     -73.29620000
H      -47.51650000     -30.78870000     -71.96430000
C      -44.33250000     -32.41770000     -74.89800000
H      -44.35610000     -31.51940000     -75.54910000
H      -44.18970000     -33.30890000     -75.62590000
C      -47.82440000     -35.36130000     -72.81790000
H      -48.86680000     -35.43830000     -72.61160000
H      -47.54850000     -35.94530000     -73.73930000
S      -42.80440000     -32.28770000     -73.85560000
S      -47.30290000     -36.31000000     -71.33360000
C      -42.89260000     -33.84170000     -72.88810000
H      -43.82380000     -34.29450000     -73.06380000
H      -42.12370000     -34.58990000     -73.27480000
C      -45.55130000     -36.39690000     -71.40660000
H      -45.15810000     -35.70170000     -72.10800000
H      -45.22310000     -37.34650000     -71.66790000
C      -44.96030000     -36.07880000     -69.94900000
H      -45.41400000     -36.72310000     -69.24530000
H      -43.85330000     -36.18770000     -69.92050000
C      -42.51960000     -33.74520000     -71.35980000
H      -41.52020000     -33.33490000     -71.21140000
H      -42.55810000     -34.76670000     -70.98050000
C      -43.47130000     -32.83170000     -70.45720000
C      -43.44610000     -31.46450000     -70.41130000
C      -44.55640000     -33.34800000     -69.64280000
H      -42.70090000     -30.90620000     -70.93840000
C      -45.14850000     -32.33050000     -68.93440000
C      -45.17690000     -34.66690000     -69.43890000
C      -46.21780000     -34.52100000     -68.50020000
S      -44.48370000     -30.74510000     -69.17270000
S      -46.49830000     -32.88660000     -67.99740000
H      -46.93430000     -35.21650000     -68.06540000
