40
Properties=species:S:1:pos:R:3 #=T CELL(abcABC):=T 1.889726e+02=T 90.00000=T Traj:=T positionsangstrom=T Step:=T 0=T Bead:=T pbc="F F F"
C      -43.22210000     -32.60260000     -74.82090000
C      -43.98570000     -31.67390000     -74.09210000
C      -43.48890000     -31.18270000     -72.83330000
C      -42.37210000     -31.88190000     -72.22520000
C      -41.75160000     -32.88590000     -72.99070000
C      -42.13700000     -33.23310000     -74.26610000
H      -43.42000000     -32.68240000     -75.91420000
H      -43.92070000     -30.40090000     -72.30930000
H      -41.01040000     -33.46550000     -72.47880000
H      -41.77440000     -34.12450000     -74.75810000
C      -41.87450000     -31.50140000     -70.88380000
H      -42.52220000     -30.67740000     -70.48400000
H      -40.88570000     -31.04660000     -70.90710000
C      -45.24960000     -31.04680000     -74.48250000
H      -45.41530000     -30.02990000     -74.15880000
H      -45.33570000     -30.97510000     -75.60390000
S      -41.78040000     -32.95310000     -69.77190000
S      -46.87400000     -32.13980000     -74.07640000
C      -43.65830000     -33.29450000     -69.74300000
H      -44.05800000     -32.92400000     -68.73030000
H      -44.06780000     -32.62040000     -70.49390000
C      -46.30040000     -33.90060000     -73.88570000
H      -45.50960000     -34.14090000     -74.61570000
H      -47.26310000     -34.35820000     -74.12150000
C      -46.03380000     -34.44380000     -72.48690000
H      -45.92440000     -35.50680000     -72.55680000
H      -45.09980000     -34.09150000     -72.14480000
C      -44.10890000     -34.79660000     -69.69330000
H      -43.49650000     -35.29860000     -68.92870000
H      -43.89600000     -35.37420000     -70.65150000
C      -45.56220000     -34.87780000     -69.26240000
C      -45.80830000     -35.09910000     -67.95310000
C      -46.74170000     -34.40020000     -70.04200000
H      -45.06540000     -35.21730000     -67.17930000
C      -47.86310000     -34.47990000     -69.26760000
C      -47.05760000     -34.25510000     -71.45060000
C      -48.40240000     -34.03410000     -71.58370000
S      -47.50290000     -34.80270000     -67.61130000
S      -49.34530000     -34.23270000     -70.04500000
H      -48.98620000     -34.04620000     -72.52030000
