40
Properties=species:S:1:pos:R:3 #=T CELL(abcABC):=T 1.889726e+02=T 90.00000=T Traj:=T positionsangstrom=T Step:=T 0=T Bead:=T pbc="F F F"
C      -47.71120000     -33.60680000     -72.45960000
C      -47.03990000     -34.51780000     -73.24270000
C      -45.91040000     -34.15580000     -73.92910000
C      -45.43760000     -32.84900000     -73.93980000
C      -46.11740000     -31.88490000     -73.16430000
C      -47.22620000     -32.25200000     -72.44150000
H      -48.64370000     -33.79600000     -71.94550000
H      -45.45400000     -34.92150000     -74.64250000
H      -45.71730000     -30.85160000     -73.12550000
H      -47.74830000     -31.50530000     -71.78560000
C      -44.19430000     -32.57160000     -74.76070000
H      -44.24290000     -31.67550000     -75.40290000
H      -43.97110000     -33.38300000     -75.45400000
C      -47.46820000     -35.94720000     -73.14320000
H      -48.57270000     -35.94370000     -73.21070000
H      -46.95670000     -36.60950000     -73.80200000
S      -42.67370000     -32.26790000     -73.62540000
S      -47.04870000     -36.51430000     -71.44400000
C      -42.59470000     -33.73540000     -72.43570000
H      -43.58020000     -34.34290000     -72.52590000
H      -41.73610000     -34.36700000     -72.65040000
C      -45.26960000     -36.10380000     -71.21940000
H      -45.09320000     -35.28630000     -71.94350000
H      -44.66180000     -36.95310000     -71.54040000
C      -44.89710000     -35.74070000     -69.78940000
H      -45.27010000     -36.62190000     -69.23150000
H      -43.81450000     -35.57510000     -69.64830000
C      -42.50850000     -33.39800000     -70.96570000
H      -41.66180000     -32.83220000     -70.79800000
H      -42.34370000     -34.32000000     -70.53300000
C      -43.71210000     -32.64380000     -70.51240000
C      -43.68800000     -31.26180000     -70.61050000
C      -44.80000000     -33.14620000     -69.62410000
H      -43.04850000     -30.58900000     -71.16890000
C      -45.39180000     -32.03730000     -69.03570000
C      -45.38160000     -34.39240000     -69.27980000
C      -46.42330000     -34.22370000     -68.38180000
S      -44.89570000     -30.45200000     -69.58280000
S      -46.70820000     -32.51270000     -68.02290000
H      -47.00440000     -35.03880000     -67.98540000
