40
Properties=species:S:1:pos:R:3 #=T CELL(abcABC):=T 1.889726e+02=T 90.00000=T Traj:=T positionsangstrom=T Step:=T 0=T Bead:=T pbc="F F F"
C      -46.87720000     -34.88100000     -72.63600000
C      -45.58510000     -35.39450000     -72.70650000
C      -44.53400000     -34.61950000     -73.20400000
C      -44.74110000     -33.28580000     -73.60710000
C      -46.04510000     -32.80440000     -73.47440000
C      -47.12360000     -33.54510000     -73.01990000
H      -47.60910000     -35.48470000     -72.13900000
H      -43.58450000     -35.06100000     -73.42660000
H      -46.05220000     -31.77230000     -73.76460000
H      -48.17730000     -33.17250000     -73.07150000
C      -43.67490000     -32.49910000     -74.32100000
H      -44.11130000     -31.80020000     -75.02620000
H      -42.97410000     -33.13360000     -74.82600000
C      -45.25070000     -36.86170000     -72.32090000
H      -46.14630000     -37.44750000     -72.51080000
H      -44.34350000     -37.33950000     -72.78200000
S      -42.75490000     -31.47950000     -73.09090000
S      -45.08950000     -37.11000000     -70.52330000
C      -42.43630000     -32.58120000     -71.62540000
H      -42.79050000     -33.55470000     -71.93690000
H      -41.35980000     -32.71820000     -71.44800000
C      -43.92070000     -35.78190000     -69.97930000
H      -43.58990000     -35.08970000     -70.79190000
H      -43.06570000     -36.31300000     -69.51850000
C      -44.61720000     -34.93900000     -68.91320000
H      -45.02900000     -35.54630000     -68.14530000
H      -43.86790000     -34.30310000     -68.36580000
C      -43.08140000     -32.15080000     -70.39270000
H      -42.53480000     -31.23400000     -70.10150000
H      -43.05210000     -32.89310000     -69.59800000
C      -44.51920000     -31.74290000     -70.39060000
C      -44.91260000     -30.52770000     -70.72160000
C      -45.57760000     -32.63570000     -70.03070000
H      -44.28460000     -29.76340000     -71.17860000
C      -46.83250000     -32.04960000     -70.24160000
C      -45.79020000     -33.98290000     -69.44990000
C      -47.15970000     -34.26280000     -69.24910000
S      -46.70950000     -30.30980000     -70.70720000
S      -48.22540000     -32.90720000     -69.65940000
H      -47.57830000     -35.16990000     -68.81810000
