40
Properties=species:S:1:pos:R:3 #=T CELL(abcABC):=T 1.889726e+02=T 90.00000=T Traj:=T positionsangstrom=T Step:=T 0=T Bead:=T pbc="F F F"
C      -47.25750000     -34.19110000     -72.93120000
C      -46.22280000     -35.05380000     -72.87270000
C      -45.03320000     -34.59140000     -73.49700000
C      -44.83150000     -33.30960000     -73.95100000
C      -45.77150000     -32.37640000     -73.72760000
C      -47.01990000     -32.85180000     -73.30720000
H      -48.21480000     -34.49070000     -72.45790000
H      -44.11940000     -35.27780000     -73.52700000
H      -45.53550000     -31.32830000     -73.93830000
H      -47.77740000     -32.16060000     -73.18380000
C      -43.45290000     -32.97700000     -74.43390000
H      -43.45010000     -32.27000000     -75.23340000
H      -42.91320000     -33.92490000     -74.77670000
C      -46.41450000     -36.51770000     -72.58480000
H      -47.53340000     -36.72370000     -72.55500000
H      -45.91620000     -37.15060000     -73.34690000
S      -42.44460000     -32.13090000     -73.16540000
S      -46.03630000     -37.01520000     -70.84340000
C      -42.70890000     -33.21180000     -71.75790000
H      -43.61900000     -33.70380000     -71.86450000
H      -41.93520000     -33.93800000     -71.73780000
C      -44.47400000     -36.13910000     -70.41810000
H      -44.09240000     -35.64210000     -71.28590000
H      -43.62820000     -36.84840000     -70.21670000
C      -44.56820000     -35.16400000     -69.29530000
H      -44.84590000     -35.82590000     -68.43840000
H      -43.49270000     -34.92800000     -69.20650000
C      -42.71610000     -32.42310000     -70.31570000
H      -42.06600000     -31.58250000     -70.28250000
H      -42.34520000     -33.11840000     -69.53270000
C      -44.14560000     -31.88900000     -70.14060000
C      -44.37260000     -30.54730000     -70.35670000
C      -45.26830000     -32.60960000     -69.78090000
H      -43.75560000     -29.68420000     -70.63640000
C      -46.43240000     -31.81410000     -69.69670000
C      -45.52820000     -34.02030000     -69.39890000
C      -46.90460000     -34.17050000     -69.08310000
S      -46.12500000     -30.16410000     -70.00690000
S      -47.93100000     -32.69140000     -69.37440000
H      -47.33920000     -35.18990000     -68.94300000
