40
Properties=species:S:1:pos:R:3 #=T CELL(abcABC):=T 1.889726e+02=T 90.00000=T Traj:=T positionsangstrom=T Step:=T 0=T Bead:=T pbc="F F F"
C      -47.06930000     -34.60480000     -73.06200000
C      -45.96330000     -35.46090000     -73.15070000
C      -44.77740000     -34.84760000     -73.60410000
C      -44.65530000     -33.52870000     -73.94350000
C      -45.78330000     -32.69420000     -73.80700000
C      -46.96660000     -33.23790000     -73.39410000
H      -47.96180000     -35.05930000     -72.66450000
H      -43.93720000     -35.44260000     -73.67580000
H      -45.67210000     -31.60820000     -73.97420000
H      -47.81470000     -32.57380000     -73.30360000
C      -43.25150000     -32.96360000     -74.18350000
H      -43.12200000     -32.56670000     -75.15250000
H      -42.49740000     -33.81860000     -74.02160000
C      -46.00120000     -36.85470000     -72.49370000
H      -47.00480000     -37.20750000     -72.61760000
H      -45.26960000     -37.54470000     -72.86960000
S      -42.69920000     -31.65440000     -73.02750000
S      -45.93500000     -36.83070000     -70.65370000
C      -42.59520000     -32.78940000     -71.57650000
H      -43.43150000     -33.48400000     -71.65950000
H      -41.63370000     -33.37670000     -71.54130000
C      -44.29990000     -36.01270000     -70.42060000
H      -44.04170000     -35.46390000     -71.28990000
H      -43.45560000     -36.63450000     -70.19080000
C      -44.31870000     -35.01930000     -69.22030000
H      -44.52540000     -35.66020000     -68.33820000
H      -43.38740000     -34.54920000     -69.16600000
C      -42.83210000     -32.00180000     -70.23690000
H      -42.27350000     -31.10550000     -70.12970000
H      -42.55980000     -32.61420000     -69.41220000
C      -44.27580000     -31.66520000     -70.18250000
C      -44.73410000     -30.43540000     -70.45470000
C      -45.42850000     -32.58880000     -69.81230000
H      -44.13420000     -29.70320000     -70.94720000
C      -46.63190000     -31.86120000     -69.80000000
C      -45.48140000     -33.95450000     -69.36150000
C      -46.78800000     -34.23580000     -68.91780000
S      -46.49060000     -30.28340000     -70.39110000
S      -47.97290000     -32.89890000     -69.33490000
H      -47.13730000     -35.29600000     -68.80240000
