40
Properties=species:S:1:pos:R:3 #=T CELL(abcABC):=T 1.889726e+02=T 90.00000=T Traj:=T positionsangstrom=T Step:=T 0=T Bead:=T pbc="F F F"
C      -47.43330000     -33.94990000     -72.48680000
C      -46.55330000     -34.96450000     -72.94810000
C      -45.42420000     -34.60530000     -73.63330000
C      -45.00090000     -33.25130000     -73.76040000
C      -45.83260000     -32.27410000     -73.27880000
C      -47.05520000     -32.61100000     -72.72060000
H      -48.29230000     -34.27360000     -71.96800000
H      -44.77540000     -35.37780000     -74.02780000
H      -45.61190000     -31.23870000     -73.42750000
H      -47.78980000     -31.86930000     -72.31570000
C      -43.61440000     -32.95850000     -74.41720000
H      -43.84060000     -32.31390000     -75.35730000
H      -43.14710000     -33.87560000     -74.66610000
C      -46.83660000     -36.43130000     -72.77910000
H      -47.85750000     -36.76190000     -73.07620000
H      -46.07040000     -36.98100000     -73.40380000
S      -42.62780000     -31.98460000     -73.12150000
S      -46.28540000     -37.03910000     -71.00830000
C      -42.32340000     -33.34200000     -71.82650000
H      -43.04180000     -34.14750000     -72.00710000
H      -41.33350000     -33.71340000     -71.87220000
C      -44.69870000     -36.18900000     -70.78530000
H      -44.55520000     -35.47400000     -71.59780000
H      -43.93830000     -36.99140000     -70.81250000
C      -44.51820000     -35.27790000     -69.48450000
H      -44.60050000     -36.08260000     -68.72950000
H      -43.48490000     -34.89180000     -69.48450000
C      -42.60760000     -32.68170000     -70.54310000
H      -41.84700000     -31.87790000     -70.45730000
H      -42.42920000     -33.35570000     -69.80520000
C      -43.92340000     -32.03740000     -70.30400000
C      -44.06450000     -30.68790000     -70.32350000
C      -45.13690000     -32.74090000     -69.84810000
H      -43.37280000     -29.92690000     -70.61880000
C      -46.18710000     -31.83210000     -69.71580000
C      -45.52100000     -34.12380000     -69.46310000
C      -46.88920000     -34.25830000     -69.13600000
S      -45.71880000     -30.21620000     -70.02200000
S      -47.69240000     -32.61200000     -69.23630000
H      -47.41970000     -35.11130000     -68.73460000
