40
Properties=species:S:1:pos:R:3 #=T CELL(abcABC):=T 1.889726e+02=T 90.00000=T Traj:=T positionsangstrom=T Step:=T 0=T Bead:=T pbc="F F F"
C      -44.03020000     -32.49660000     -75.39920000
C      -44.83280000     -31.79170000     -74.41620000
C      -44.22810000     -31.44570000     -73.13090000
C      -42.90300000     -31.73870000     -72.91610000
C      -42.13110000     -32.39780000     -73.90670000
C      -42.75490000     -32.91910000     -75.07230000
H      -44.39150000     -32.88790000     -76.38030000
H      -44.82340000     -30.92300000     -72.43200000
H      -41.09940000     -32.67480000     -73.74680000
H      -42.17510000     -33.60640000     -75.67270000
C      -42.12990000     -31.21680000     -71.67280000
H      -42.65990000     -30.45020000     -71.14160000
H      -41.22300000     -30.78880000     -71.91340000
C      -46.24970000     -31.37210000     -74.73890000
H      -46.30890000     -30.27320000     -74.52970000
H      -46.45220000     -31.60590000     -75.77070000
S      -41.64370000     -32.61760000     -70.58010000
S      -47.47880000     -32.30830000     -73.62260000
C      -43.34650000     -32.98150000     -69.80340000
H      -43.41120000     -32.46250000     -68.85080000
H      -44.09260000     -32.50890000     -70.49780000
C      -46.75210000     -34.00730000     -73.62580000
H      -46.13220000     -34.09990000     -74.51870000
H      -47.63000000     -34.60740000     -73.79500000
C      -45.96990000     -34.46190000     -72.37540000
H      -45.50180000     -35.41910000     -72.52390000
H      -45.24480000     -33.68490000     -72.06310000
C      -43.61920000     -34.48260000     -69.59240000
H      -42.98200000     -34.89140000     -68.86400000
H      -43.53450000     -35.10960000     -70.43340000
C      -44.96280000     -34.61440000     -69.01640000
C      -45.12290000     -34.59490000     -67.63880000
C      -46.24630000     -34.64120000     -69.66610000
H      -44.24160000     -34.57660000     -66.96610000
C      -47.31640000     -34.71070000     -68.71360000
C      -46.81670000     -34.56900000     -71.05340000
C      -48.14610000     -34.51130000     -71.05200000
S      -46.70890000     -34.82130000     -67.02790000
S      -48.85150000     -34.67550000     -69.47810000
H      -48.70680000     -34.63590000     -72.00090000
