40
Properties=species:S:1:pos:R:3 #=T CELL(abcABC):=T 1.889726e+02=T 90.00000=T Traj:=T positionsangstrom=T Step:=T 0=T Bead:=T pbc="F F F"
C      -44.15270000     -32.59400000     -75.32580000
C      -44.79690000     -31.64700000     -74.49870000
C      -44.15910000     -31.19080000     -73.33230000
C      -42.85400000     -31.60460000     -73.08340000
C      -42.12740000     -32.43860000     -73.93450000
C      -42.79970000     -32.89010000     -75.08660000
H      -44.67650000     -33.09810000     -76.15630000
H      -44.69670000     -30.62950000     -72.58930000
H      -41.10820000     -32.74320000     -73.93680000
H      -42.19460000     -33.46660000     -75.77660000
C      -42.13550000     -31.15390000     -71.81580000
H      -42.78710000     -30.39780000     -71.31570000
H      -41.12350000     -30.70930000     -72.02030000
C      -46.27780000     -31.51550000     -74.61920000
H      -46.65310000     -30.49580000     -74.50990000
H      -46.59220000     -31.89470000     -75.60680000
S      -41.70810000     -32.54330000     -70.70370000
S      -47.39570000     -32.40210000     -73.46620000
C      -43.37490000     -32.89570000     -70.06430000
H      -43.59810000     -32.29550000     -69.17680000
H      -44.13400000     -32.53160000     -70.74720000
C      -46.77120000     -34.17170000     -73.52170000
H      -46.14720000     -34.29010000     -74.42540000
H      -47.60060000     -34.89030000     -73.49830000
C      -45.97340000     -34.44260000     -72.20570000
H      -45.23080000     -35.25300000     -72.30590000
H      -45.37570000     -33.50890000     -72.12660000
C      -43.67210000     -34.40980000     -69.81840000
H      -42.84000000     -34.79490000     -69.18510000
H      -43.66410000     -34.99310000     -70.83840000
C      -44.96450000     -34.58280000     -69.09820000
C      -44.98870000     -34.81140000     -67.71150000
C      -46.26820000     -34.56120000     -69.65120000
H      -44.19680000     -34.99800000     -66.99550000
C      -47.25630000     -34.59590000     -68.64810000
C      -46.82860000     -34.55890000     -70.94260000
C      -48.18340000     -34.71800000     -70.94920000
S      -46.71670000     -34.72500000     -67.04150000
S      -48.82630000     -34.80320000     -69.27320000
H      -48.83150000     -34.62930000     -71.86300000
