40
Properties=species:S:1:pos:R:3 #=T CELL(abcABC):=T 1.889726e+02=T 90.00000=T Traj:=T positionsangstrom=T Step:=T 0=T Bead:=T pbc="F F F"
C      -46.28450000     -35.34350000     -73.04910000
C      -45.01790000     -35.72840000     -72.72810000
C      -43.94900000     -34.91190000     -73.10700000
C      -44.11850000     -33.65960000     -73.74930000
C      -45.45640000     -33.26000000     -73.96370000
C      -46.51350000     -34.12530000     -73.70400000
H      -47.08890000     -36.04260000     -72.66660000
H      -42.95640000     -35.28000000     -72.92240000
H      -45.64250000     -32.32000000     -74.47860000
H      -47.56520000     -33.72250000     -73.81960000
C      -43.03930000     -32.74330000     -74.02670000
H      -42.96180000     -32.26250000     -75.04710000
H      -41.95480000     -33.01760000     -73.81870000
C      -44.81550000     -37.10470000     -71.88980000
H      -45.49500000     -37.90490000     -72.19290000
H      -43.81040000     -37.41280000     -72.12240000
S      -43.21270000     -31.23820000     -72.88350000
S      -45.03620000     -36.97670000     -70.10480000
C      -42.77910000     -31.93400000     -71.26210000
H      -43.00960000     -33.04070000     -71.35250000
H      -41.73690000     -31.97260000     -71.09840000
C      -43.90200000     -35.49970000     -69.67290000
H      -43.57270000     -35.11090000     -70.66630000
H      -43.09560000     -35.86560000     -69.13610000
C      -44.52890000     -34.41770000     -68.67340000
H      -44.80410000     -34.87770000     -67.70900000
H      -43.66270000     -33.75270000     -68.53450000
C      -43.44500000     -31.16120000     -70.17530000
H      -42.99810000     -30.17980000     -70.05650000
H      -43.16540000     -31.54560000     -69.18920000
C      -44.97970000     -31.13160000     -70.31610000
C      -45.70750000     -30.08460000     -70.81760000
C      -45.84370000     -32.34440000     -69.95610000
H      -45.35000000     -29.17910000     -71.20090000
C      -47.07430000     -32.16160000     -70.38860000
C      -45.71460000     -33.66190000     -69.29470000
C      -46.92280000     -34.26400000     -69.21520000
S      -47.39560000     -30.63400000     -71.18220000
S      -48.22920000     -33.43350000     -70.00750000
H      -47.28880000     -35.18140000     -68.67180000
