40
Properties=species:S:1:pos:R:3 #=T CELL(abcABC):=T 1.889726e+02=T 90.00000=T Traj:=T positionsangstrom=T Step:=T 0=T Bead:=T pbc="F F F"
C      -46.71350000     -35.04080000     -72.36950000
C      -45.45620000     -35.53540000     -72.68730000
C      -44.62630000     -34.64210000     -73.44910000
C      -44.92600000     -33.29410000     -73.73810000
C      -46.20250000     -32.86950000     -73.40490000
C      -47.11210000     -33.81040000     -72.82710000
H      -47.40580000     -35.63070000     -71.91950000
H      -43.69860000     -34.99270000     -73.77560000
H      -46.50390000     -31.84490000     -73.60420000
H      -48.09220000     -33.41500000     -72.67810000
C      -43.83160000     -32.38000000     -74.23090000
H      -44.32870000     -31.61570000     -74.81120000
H      -43.18890000     -32.99990000     -74.95030000
C      -45.01010000     -36.88180000     -72.35910000
H      -45.79850000     -37.59830000     -72.70670000
H      -44.09050000     -37.15100000     -72.87790000
S      -42.65320000     -31.53110000     -73.06050000
S      -44.91430000     -37.06510000     -70.44690000
C      -42.42120000     -32.61250000     -71.56870000
H      -43.00410000     -33.50970000     -71.86210000
H      -41.40180000     -32.85060000     -71.33070000
C      -43.96030000     -35.56150000     -69.99040000
H      -43.93750000     -34.92180000     -70.85650000
H      -42.95800000     -35.79310000     -69.72870000
C      -44.66920000     -34.81980000     -68.83960000
H      -44.99660000     -35.46060000     -68.02400000
H      -43.74470000     -34.29270000     -68.44040000
C      -43.08820000     -32.01560000     -70.36870000
H      -42.58250000     -31.04990000     -70.15730000
H      -42.82350000     -32.72180000     -69.56850000
C      -44.56890000     -31.70060000     -70.46750000
C      -45.03140000     -30.54530000     -70.93040000
C      -45.66820000     -32.49720000     -69.90890000
H      -44.42220000     -29.71320000     -71.33820000
C      -46.93460000     -31.93790000     -70.13020000
C      -45.80550000     -33.90340000     -69.34140000
C      -47.13630000     -34.24380000     -69.11440000
S      -46.76060000     -30.38310000     -70.95800000
S      -48.26010000     -32.95390000     -69.72340000
H      -47.50060000     -35.22770000     -68.84960000
