40
Properties=species:S:1:pos:R:3 #=T CELL(abcABC):=T 1.889726e+02=T 90.00000=T Traj:=T positionsangstrom=T Step:=T 0=T Bead:=T pbc="F F F"
C      -44.76690000     -32.61750000     -75.50960000
C      -45.30590000     -31.75850000     -74.59470000
C      -44.53130000     -31.30350000     -73.54700000
C      -43.16130000     -31.63350000     -73.42770000
C      -42.63740000     -32.43710000     -74.42740000
C      -43.35870000     -32.87830000     -75.53250000
H      -45.41210000     -32.91170000     -76.35440000
H      -44.91340000     -30.74020000     -72.73860000
H      -41.54770000     -32.47050000     -74.55000000
H      -42.87770000     -33.38810000     -76.36440000
C      -42.31730000     -31.11930000     -72.33390000
H      -42.81210000     -30.43720000     -71.65670000
H      -41.40660000     -30.63470000     -72.65120000
C      -46.78030000     -31.40590000     -74.61740000
H      -46.87850000     -30.33380000     -74.46770000
H      -47.14200000     -31.55620000     -75.60810000
S      -41.63960000     -32.48380000     -71.17060000
S      -47.67310000     -32.34550000     -73.31840000
C      -43.11980000     -32.66320000     -69.96110000
H      -42.68320000     -32.30680000     -69.02700000
H      -43.98620000     -31.95220000     -70.20350000
C      -46.91650000     -34.08090000     -73.26790000
H      -46.36410000     -34.14890000     -74.22340000
H      -47.74360000     -34.86490000     -73.31770000
C      -46.02500000     -34.38400000     -72.04680000
H      -45.50380000     -35.32670000     -72.34370000
H      -45.29300000     -33.59540000     -71.91190000
C      -43.43130000     -34.16140000     -69.89100000
H      -42.46410000     -34.64100000     -69.74710000
H      -43.75570000     -34.64120000     -70.88030000
C      -44.65260000     -34.52500000     -68.98660000
C      -44.51820000     -34.73210000     -67.64090000
C      -46.03270000     -34.62470000     -69.45580000
H      -43.55100000     -34.48120000     -67.18440000
C      -46.90470000     -34.84020000     -68.39700000
C      -46.72230000     -34.58030000     -70.72380000
C      -48.06300000     -34.65850000     -70.55950000
S      -46.07120000     -34.95030000     -66.87610000
S      -48.58700000     -34.91080000     -68.84100000
H      -48.82780000     -34.79860000     -71.39190000
