40
Properties=species:S:1:pos:R:3 #=T CELL(abcABC):=T 1.889726e+02=T 90.00000=T Traj:=T positionsangstrom=T Step:=T 0=T Bead:=T pbc="F F F"
C      -45.07630000     -32.29400000     -75.99860000
C      -45.52560000     -31.98680000     -74.72960000
C      -44.56300000     -31.62380000     -73.77490000
C      -43.20400000     -31.69830000     -74.01740000
C      -42.80500000     -31.97000000     -75.31140000
C      -43.69770000     -32.37180000     -76.27820000
H      -45.90240000     -32.59150000     -76.68570000
H      -44.94290000     -31.42660000     -72.73320000
H      -41.72500000     -31.83450000     -75.51030000
H      -43.37750000     -32.74480000     -77.31030000
C      -42.16230000     -31.44380000     -72.92350000
H      -42.53880000     -30.58300000     -72.27380000
H      -41.21140000     -31.11510000     -73.37860000
C      -46.98900000     -31.73800000     -74.38990000
H      -47.08470000     -30.65120000     -74.35830000
H      -47.70040000     -32.09240000     -75.22260000
S      -41.83890000     -32.89590000     -71.89730000
S      -47.58760000     -32.25230000     -72.75700000
C      -43.13810000     -32.82110000     -70.55920000
H      -42.84950000     -32.10340000     -69.76980000
H      -44.04960000     -32.56620000     -70.99800000
C      -47.44070000     -34.04570000     -72.81510000
H      -47.15760000     -34.37520000     -73.88370000
H      -48.41940000     -34.48460000     -72.69850000
C      -46.39560000     -34.65950000     -71.81500000
H      -46.30270000     -35.73970000     -72.13540000
H      -45.36740000     -34.18290000     -72.04890000
C      -43.32760000     -34.22970000     -69.94130000
H      -42.42550000     -34.52690000     -69.40540000
H      -43.41060000     -34.97170000     -70.78280000
C      -44.48540000     -34.36630000     -68.99740000
C      -44.23260000     -34.31100000     -67.65170000
C      -45.91420000     -34.44290000     -69.19750000
H      -43.27050000     -34.14180000     -67.22570000
C      -46.64410000     -34.58760000     -68.01750000
C      -46.83310000     -34.66340000     -70.34050000
C      -48.07950000     -35.00150000     -69.95000000
S      -45.64460000     -34.45540000     -66.60630000
S      -48.31530000     -35.07480000     -68.20010000
H      -48.90550000     -35.25550000     -70.60880000
