40
Properties=species:S:1:pos:R:3 #=T CELL(abcABC):=T 1.889726e+02=T 90.00000=T Traj:=T positionsangstrom=T Step:=T 0=T Bead:=T pbc="F F F"
C      -45.02020000     -32.47580000     -75.45000000
C      -45.48660000     -31.74530000     -74.33440000
C      -44.50230000     -31.44180000     -73.38920000
C      -43.18020000     -31.65800000     -73.52510000
C      -42.77970000     -32.35880000     -74.65730000
C      -43.69260000     -32.78270000     -75.62210000
H      -45.79510000     -32.66710000     -76.20430000
H      -44.81980000     -30.86620000     -72.51420000
H      -41.71000000     -32.63610000     -74.74320000
H      -43.46870000     -33.27100000     -76.55430000
C      -42.15070000     -31.38030000     -72.44710000
H      -42.50230000     -30.67170000     -71.70260000
H      -41.25350000     -30.95270000     -72.84500000
C      -46.95890000     -31.45710000     -74.22200000
H      -47.24420000     -30.54020000     -73.84570000
H      -47.32830000     -31.52750000     -75.21870000
S      -41.65480000     -32.73420000     -71.40470000
S      -47.90800000     -32.60610000     -73.12430000
C      -43.18140000     -32.92870000     -70.34870000
H      -42.94580000     -32.36210000     -69.40370000
H      -44.12110000     -32.48390000     -70.84270000
C      -46.89860000     -34.13920000     -73.21760000
H      -46.35180000     -34.24440000     -74.17920000
H      -47.56540000     -34.95180000     -73.25020000
C      -45.91010000     -34.35900000     -72.02270000
H      -45.35320000     -35.25580000     -72.17460000
H      -45.18730000     -33.55330000     -72.02490000
C      -43.34350000     -34.41900000     -70.01240000
H      -42.43870000     -34.58080000     -69.37320000
H      -43.51350000     -35.06830000     -70.88320000
C      -44.53860000     -34.55790000     -69.04130000
C      -44.34240000     -34.66870000     -67.68230000
C      -45.91530000     -34.53830000     -69.45130000
H      -43.45140000     -34.86500000     -67.07400000
C      -46.79290000     -34.64850000     -68.38670000
C      -46.62480000     -34.45780000     -70.70080000
C      -47.97250000     -34.52060000     -70.51310000
S      -45.89920000     -34.65820000     -66.82520000
S      -48.47350000     -34.59520000     -68.83060000
H      -48.69250000     -34.21880000     -71.23170000
