40
Properties=species:S:1:pos:R:3 #=T CELL(abcABC):=T 1.889726e+02=T 90.00000=T Traj:=T positionsangstrom=T Step:=T 0=T Bead:=T pbc="F F F"
C      -44.93830000     -32.14910000     -76.00850000
C      -45.45020000     -31.98180000     -74.73120000
C      -44.53520000     -31.70200000     -73.72110000
C      -43.15250000     -31.61300000     -73.93990000
C      -42.67500000     -31.90370000     -75.20150000
C      -43.54620000     -32.18750000     -76.22970000
H      -45.62940000     -32.28760000     -76.82120000
H      -44.91370000     -31.52330000     -72.72320000
H      -41.63010000     -31.86230000     -75.39590000
H      -43.14020000     -32.56760000     -77.23840000
C      -42.25840000     -31.34630000     -72.80630000
H      -42.66480000     -30.59080000     -72.11820000
H      -41.34030000     -31.01170000     -73.14800000
C      -46.95730000     -31.91980000     -74.55270000
H      -47.30790000     -30.93090000     -74.73230000
H      -47.45930000     -32.50000000     -75.21580000
S      -41.90270000     -32.91650000     -71.78360000
S      -47.52260000     -32.33440000     -72.83170000
C      -43.19380000     -32.78170000     -70.44960000
H      -42.71940000     -32.15170000     -69.67200000
H      -44.01430000     -32.14150000     -70.74330000
C      -47.26150000     -34.21800000     -72.88500000
H      -46.95810000     -34.41490000     -73.90770000
H      -48.15930000     -34.79720000     -72.70550000
C      -46.22460000     -34.64560000     -71.82450000
H      -45.96560000     -35.64840000     -72.08170000
H      -45.28050000     -34.09250000     -71.85360000
C      -43.46740000     -34.16390000     -69.99540000
H      -42.52480000     -34.69990000     -69.65620000
H      -43.75440000     -34.79540000     -70.81740000
C      -44.55090000     -34.27900000     -68.94950000
C      -44.27240000     -34.32300000     -67.60080000
C      -45.91390000     -34.57800000     -69.17560000
H      -43.34070000     -34.17000000     -67.10550000
C      -46.71770000     -34.73490000     -68.03100000
C      -46.83310000     -34.64030000     -70.39870000
C      -48.12780000     -34.86800000     -70.09050000
S      -45.69100000     -34.73990000     -66.57600000
S      -48.46280000     -34.78500000     -68.32230000
H      -48.92370000     -34.72100000     -70.80350000
