40
Properties=species:S:1:pos:R:3 #=T CELL(abcABC):=T 1.889726e+02=T 90.00000=T Traj:=T positionsangstrom=T Step:=T 0=T Bead:=T pbc="F F F"
C      -46.50980000     -30.39000000     -72.46680000
C      -47.61720000     -31.28850000     -72.37390000
C      -47.60920000     -32.35700000     -73.22760000
C      -46.61360000     -32.60480000     -74.17540000
C      -45.53870000     -31.69440000     -74.28470000
C      -45.43480000     -30.60790000     -73.40590000
H      -46.56780000     -29.49440000     -71.76210000
H      -48.52880000     -32.87720000     -73.45770000
H      -44.85240000     -31.67970000     -75.10790000
H      -44.52690000     -29.92350000     -73.41620000
C      -46.60120000     -33.77490000     -75.11690000
H      -45.83360000     -33.71740000     -75.91660000
H      -47.58420000     -33.84190000     -75.67400000
C      -48.85030000     -31.07090000     -71.54000000
H      -49.04340000     -29.97000000     -71.33340000
H      -49.70580000     -31.43770000     -72.14120000
S      -46.31680000     -35.38210000     -74.22640000
S      -48.84220000     -31.98430000     -69.91700000
C      -44.82660000     -35.02060000     -73.12620000
H      -43.84090000     -35.22630000     -73.59420000
H      -44.94760000     -33.96910000     -72.85210000
C      -47.00340000     -32.03470000     -69.44200000
H      -46.94760000     -32.12030000     -68.34500000
H      -46.45780000     -31.04990000     -69.71550000
C      -46.29760000     -33.22620000     -70.02630000
H      -46.93880000     -34.14900000     -69.89530000
H      -46.18730000     -33.12370000     -71.14270000
C      -44.89820000     -35.85090000     -71.84400000
H      -44.96820000     -36.91990000     -72.10780000
H      -45.82160000     -35.63800000     -71.25640000
C      -43.70480000     -35.46120000     -70.99220000
C      -42.44300000     -35.89390000     -71.16160000
C      -43.82220000     -34.38210000     -70.03260000
H      -42.17680000     -36.67330000     -71.80720000
C      -42.62520000     -34.18460000     -69.35220000
C      -44.83970000     -33.43700000     -69.54120000
C      -44.38250000     -32.73350000     -68.42580000
S      -41.34140000     -35.20310000     -69.89970000
S      -42.74370000     -32.99470000     -68.03590000
H      -45.00730000     -32.11110000     -67.76650000
