40
Properties=species:S:1:pos:R:3 #=T CELL(abcABC):=T 1.889726e+02=T 90.00000=T Traj:=T positionsangstrom=T Step:=T 0=T Bead:=T pbc="F F F"
C      -44.93560000     -35.31480000     -73.06750000
C      -43.71030000     -35.09010000     -72.41350000
C      -43.09080000     -33.81630000     -72.50690000
C      -43.63180000     -32.87330000     -73.36450000
C      -44.82080000     -33.16280000     -74.07540000
C      -45.49490000     -34.36850000     -73.92640000
H      -45.39430000     -36.26060000     -72.84370000
H      -42.08410000     -33.63590000     -72.01450000
H      -45.19160000     -32.45070000     -74.78230000
H      -46.42570000     -34.71740000     -74.36990000
C      -42.97410000     -31.51260000     -73.44970000
H      -42.98700000     -31.06830000     -74.42490000
H      -41.90760000     -31.53920000     -73.10210000
C      -43.04010000     -36.17130000     -71.60580000
H      -43.27210000     -37.13030000     -72.03610000
H      -41.96000000     -35.87950000     -71.37840000
S      -43.86630000     -30.22980000     -72.39540000
S      -43.84280000     -36.22940000     -69.89350000
C      -43.80330000     -31.03020000     -70.73530000
H      -43.58800000     -32.10430000     -70.85940000
H      -42.93370000     -30.58950000     -70.20330000
C      -43.64430000     -34.51000000     -69.27800000
H      -43.50810000     -33.97710000     -70.24770000
H      -42.67620000     -34.47660000     -68.73550000
C      -44.81600000     -33.94200000     -68.47300000
H      -44.96920000     -34.62660000     -67.57180000
H      -44.57260000     -32.96520000     -68.13830000
C      -45.11660000     -30.64960000     -70.00680000
H      -45.48310000     -29.71530000     -70.28740000
H      -44.81910000     -30.69110000     -68.88290000
C      -46.33300000     -31.51480000     -70.41030000
C      -47.26860000     -31.04100000     -71.35160000
C      -46.54840000     -32.91510000     -70.17790000
H      -47.44700000     -30.03920000     -71.72310000
C      -47.68710000     -33.39860000     -70.84090000
C      -46.00090000     -33.98960000     -69.37940000
C      -46.63860000     -35.13910000     -69.51150000
S      -48.43970000     -32.23080000     -71.86500000
S      -47.94510000     -35.08830000     -70.68090000
H      -46.33650000     -36.12730000     -69.05110000
