40
Properties=species:S:1:pos:R:3 #=T CELL(abcABC):=T 1.889726e+02=T 90.00000=T Traj:=T positionsangstrom=T Step:=T 0=T Bead:=T pbc="F F F"
C      -41.65120000     -34.68590000     -71.33760000
C      -42.71660000     -33.75840000     -71.03570000
C      -43.94960000     -34.28960000     -70.81730000
C      -44.19440000     -35.69420000     -70.81990000
C      -43.12860000     -36.54340000     -71.15150000
C      -41.87470000     -36.01620000     -71.45770000
H      -40.60620000     -34.20970000     -71.49200000
H      -44.79650000     -33.67510000     -70.59270000
H      -43.23590000     -37.58930000     -71.31660000
H      -41.06570000     -36.72620000     -71.83440000
C      -45.61400000     -36.17280000     -70.67260000
H      -46.25940000     -35.33560000     -70.36590000
H      -45.66810000     -37.01520000     -69.93130000
C      -42.56510000     -32.24380000     -70.94530000
H      -43.36770000     -31.92200000     -70.16920000
H      -41.58530000     -31.85550000     -70.56010000
S      -46.36370000     -36.73470000     -72.33830000
S      -42.67360000     -31.33680000     -72.51090000
C      -46.29270000     -35.17710000     -73.32100000
H      -45.28320000     -34.79650000     -73.03790000
H      -46.17480000     -35.34500000     -74.42350000
C      -44.08230000     -32.09800000     -73.45340000
H      -44.19970000     -33.12180000     -73.07900000
H      -43.85660000     -32.16960000     -74.48340000
C      -45.36980000     -31.35600000     -73.27260000
H      -45.17230000     -30.38430000     -73.69530000
H      -45.99140000     -31.86260000     -74.02190000
C      -47.41750000     -34.11860000     -73.03280000
H      -48.37790000     -34.62550000     -73.20100000
H      -47.22210000     -33.25910000     -73.70460000
C      -47.45120000     -33.56460000     -71.62500000
C      -48.33340000     -33.96890000     -70.63960000
C      -46.85120000     -32.27540000     -71.15030000
H      -48.88360000     -34.90900000     -70.57460000
C      -47.21550000     -31.81920000     -69.86080000
C      -45.95500000     -31.34980000     -71.82180000
C      -45.50500000     -30.40820000     -70.91460000
S      -48.25580000     -33.02850000     -69.11280000
S      -46.22310000     -30.43980000     -69.30180000
H      -44.89040000     -29.62790000     -71.32030000
