40
Properties=species:S:1:pos:R:3 #=T CELL(abcABC):=T 1.889726e+02=T 90.00000=T Traj:=T positionsangstrom=T Step:=T 0=T Bead:=T pbc="F F F"
C      -41.67550000     -34.59910000     -71.38370000
C      -42.70550000     -33.77860000     -70.92070000
C      -44.04900000     -34.25100000     -70.78720000
C      -44.29330000     -35.61880000     -71.02990000
C      -43.26900000     -36.35890000     -71.63700000
C      -41.98220000     -35.94510000     -71.71000000
H      -40.59820000     -34.21920000     -71.58840000
H      -44.85020000     -33.62770000     -70.41890000
H      -43.41250000     -37.41390000     -71.93540000
H      -41.25930000     -36.56850000     -72.29520000
C      -45.65230000     -36.18620000     -70.74300000
H      -46.28580000     -35.45790000     -70.19780000
H      -45.59660000     -37.12600000     -70.18210000
C      -42.41760000     -32.30460000     -70.77130000
H      -43.09640000     -31.78570000     -70.09540000
H      -41.40590000     -32.05810000     -70.52860000
S      -46.74460000     -36.72780000     -72.26670000
S      -42.55430000     -31.48010000     -72.46390000
C      -46.71420000     -35.31890000     -73.40760000
H      -45.66380000     -34.90250000     -73.33330000
H      -46.96930000     -35.66340000     -74.40970000
C      -43.91890000     -32.30860000     -73.38560000
H      -44.13600000     -33.34740000     -73.09070000
H      -43.56410000     -32.41470000     -74.45650000
C      -45.16010000     -31.54680000     -73.26840000
H      -45.22770000     -30.53040000     -73.63370000
H      -46.01180000     -32.07250000     -73.79830000
C      -47.67130000     -34.10380000     -72.95820000
H      -48.67450000     -34.54920000     -72.88360000
H      -47.64700000     -33.42180000     -73.78870000
C      -47.46480000     -33.40170000     -71.56160000
C      -48.38200000     -33.77310000     -70.54760000
C      -46.64950000     -32.31370000     -71.12340000
H      -48.98740000     -34.65340000     -70.67630000
C      -46.96400000     -31.88270000     -69.79730000
C      -45.61780000     -31.50730000     -71.76270000
C      -45.20090000     -30.47800000     -70.94300000
S      -48.30280000     -32.85860000     -69.07390000
S      -46.01600000     -30.38970000     -69.28280000
H      -44.54640000     -29.64690000     -71.23550000
