40
Properties=species:S:1:pos:R:3 #=T CELL(abcABC):=T 1.889726e+02=T 90.00000=T Traj:=T positionsangstrom=T Step:=T 0=T Bead:=T pbc="F F F"
C      -41.58610000     -34.31760000     -72.19370000
C      -42.58390000     -33.59370000     -71.52050000
C      -43.67760000     -34.37120000     -71.13950000
C      -43.73490000     -35.78950000     -71.25850000
C      -42.71860000     -36.44200000     -71.96840000
C      -41.67130000     -35.67250000     -72.44560000
H      -40.71280000     -33.73390000     -72.53300000
H      -44.48780000     -33.79440000     -70.64500000
H      -42.74030000     -37.54950000     -72.15120000
H      -40.98670000     -36.10020000     -73.19680000
C      -44.87710000     -36.49940000     -70.64390000
H      -45.21320000     -35.92740000     -69.79750000
H      -44.71110000     -37.58250000     -70.22090000
C      -42.55180000     -32.19640000     -71.16430000
H      -43.26120000     -31.94380000     -70.42330000
H      -41.61090000     -31.79310000     -70.79300000
S      -46.43670000     -36.64590000     -71.77420000
S      -42.84650000     -31.13980000     -72.66890000
C      -46.33690000     -35.19790000     -73.01870000
H      -45.31910000     -34.85660000     -72.98420000
H      -46.40970000     -35.71980000     -73.94690000
C      -44.36020000     -31.84120000     -73.41000000
H      -44.20950000     -32.93130000     -73.24990000
H      -44.11880000     -31.68770000     -74.50310000
C      -45.72000000     -31.15330000     -72.95100000
H      -45.49380000     -30.08350000     -73.07490000
H      -46.50810000     -31.49590000     -73.66550000
C      -47.37780000     -34.15960000     -72.84900000
H      -48.34560000     -34.52220000     -73.16910000
H      -47.14390000     -33.35400000     -73.49730000
C      -47.50040000     -33.56370000     -71.41230000
C      -48.20910000     -34.27420000     -70.45450000
C      -46.90030000     -32.39810000     -70.93410000
H      -48.80720000     -35.19620000     -70.52980000
C      -47.25700000     -32.01620000     -69.63110000
C      -46.11040000     -31.36840000     -71.57290000
C      -45.86100000     -30.31790000     -70.76640000
S      -48.18880000     -33.34790000     -68.93330000
S      -46.51300000     -30.56510000     -69.09210000
H      -45.14620000     -29.47790000     -70.83210000
