40
Properties=species:S:1:pos:R:3 #=T CELL(abcABC):=T 1.889726e+02=T 90.00000=T Traj:=T positionsangstrom=T Step:=T 0=T Bead:=T pbc="F F F"
C      -41.75060000     -34.42030000     -71.84750000
C      -42.71600000     -33.67290000     -71.17560000
C      -43.87150000     -34.32520000     -70.74510000
C      -44.11350000     -35.69160000     -71.01590000
C      -43.11220000     -36.40760000     -71.61150000
C      -41.93110000     -35.76780000     -72.03000000
H      -40.90230000     -33.84440000     -72.26130000
H      -44.64360000     -33.73970000     -70.28390000
H      -43.06900000     -37.49540000     -71.79490000
H      -41.20920000     -36.38860000     -72.53690000
C      -45.39840000     -36.27560000     -70.48390000
H      -45.95520000     -35.50330000     -69.99010000
H      -45.27240000     -37.11590000     -69.79850000
C      -42.46410000     -32.22180000     -70.85710000
H      -43.32780000     -31.95980000     -70.26660000
H      -41.47040000     -32.02360000     -70.41710000
S      -46.34980000     -36.81690000     -71.94560000
S      -42.70390000     -30.96600000     -72.26310000
C      -46.28640000     -35.42560000     -73.13500000
H      -45.43030000     -34.73850000     -73.12010000
H      -46.35810000     -35.89900000     -74.13200000
C      -43.87560000     -31.67110000     -73.46460000
H      -43.56300000     -32.70650000     -73.65220000
H      -43.69320000     -31.18920000     -74.43720000
C      -45.44210000     -31.54030000     -73.19500000
H      -45.61170000     -30.62530000     -73.77340000
H      -45.97300000     -32.33470000     -73.70900000
C      -47.47270000     -34.42590000     -72.94150000
H      -48.37200000     -34.95730000     -72.94330000
H      -47.48060000     -33.71060000     -73.77790000
C      -47.54670000     -33.60750000     -71.60440000
C      -48.41290000     -34.06070000     -70.60480000
C      -46.84460000     -32.33850000     -71.22650000
H      -49.00940000     -34.87930000     -70.74860000
C      -47.05050000     -32.06560000     -69.86840000
C      -45.92210000     -31.42240000     -71.78590000
C      -45.57670000     -30.38110000     -70.93500000
S      -48.19620000     -33.16650000     -69.13060000
S      -46.42460000     -30.50990000     -69.44450000
H      -44.78720000     -29.71660000     -71.15290000
