40
Properties=species:S:1:pos:R:3 #=T CELL(abcABC):=T 1.889726e+02=T 90.00000=T Traj:=T positionsangstrom=T Step:=T 0=T Bead:=T pbc="F F F"
C      -45.24220000     -30.97380000     -71.84810000
C      -46.57820000     -31.39630000     -71.96890000
C      -46.83140000     -32.35030000     -72.99650000
C      -45.83160000     -32.78990000     -73.85320000
C      -44.49310000     -32.39670000     -73.66240000
C      -44.19700000     -31.51680000     -72.59870000
H      -44.96410000     -30.36340000     -70.99730000
H      -47.84450000     -32.71970000     -73.14420000
H      -43.79240000     -32.89250000     -74.23300000
H      -43.15060000     -31.21800000     -72.39760000
C      -46.10080000     -33.68600000     -75.00410000
H      -45.27780000     -33.51370000     -75.67090000
H      -47.09950000     -33.52920000     -75.36260000
C      -47.80170000     -30.91920000     -71.17930000
H      -48.18310000     -30.04380000     -71.68440000
H      -48.56860000     -31.66160000     -71.30350000
S      -45.84450000     -35.41450000     -74.39460000
S      -47.67780000     -30.84180000     -69.32800000
C      -46.70870000     -35.54020000     -72.82190000
H      -47.15690000     -34.67430000     -72.44940000
H      -47.46700000     -36.28130000     -73.05200000
C      -47.87120000     -32.66620000     -68.93170000
H      -48.87390000     -32.92800000     -69.22270000
H      -47.81100000     -32.55810000     -67.83500000
C      -46.96990000     -33.80310000     -69.48470000
H      -47.45460000     -34.69000000     -68.95090000
H      -47.17100000     -33.92100000     -70.52950000
C      -45.87080000     -36.23100000     -71.73390000
H      -45.66210000     -37.20120000     -72.15790000
H      -46.41180000     -36.30710000     -70.83580000
C      -44.56840000     -35.42430000     -71.34340000
C      -43.31420000     -35.49230000     -71.90070000
C      -44.55390000     -34.44610000     -70.21710000
H      -43.06300000     -36.09090000     -72.78450000
C      -43.25020000     -33.96930000     -69.94140000
C      -45.47940000     -33.73920000     -69.35480000
C      -44.83840000     -32.79400000     -68.55600000
S      -42.07750000     -34.75710000     -70.94160000
S      -43.14630000     -32.73150000     -68.80580000
H      -45.30080000     -32.09450000     -67.83440000
