40
Properties=species:S:1:pos:R:3 #=T CELL(abcABC):=T 1.889726e+02=T 90.00000=T Traj:=T positionsangstrom=T Step:=T 0=T Bead:=T pbc="F F F"
C      -46.51940000     -30.54100000     -72.55900000
C      -47.75530000     -31.22560000     -72.68130000
C      -47.81500000     -32.29350000     -73.58910000
C      -46.68840000     -32.63240000     -74.33900000
C      -45.51380000     -31.86840000     -74.25310000
C      -45.42060000     -30.75960000     -73.37520000
H      -46.46890000     -29.79400000     -71.81980000
H      -48.64660000     -32.97030000     -73.65590000
H      -44.62920000     -32.22750000     -74.81360000
H      -44.61810000     -30.14910000     -73.19630000
C      -46.77200000     -33.91940000     -75.13490000
H      -46.09050000     -33.94780000     -75.94640000
H      -47.72310000     -34.15060000     -75.47740000
C      -48.82800000     -30.99880000     -71.64970000
H      -48.68790000     -30.05340000     -71.11380000
H      -49.86380000     -30.99050000     -72.08950000
S      -46.33160000     -35.39220000     -74.00280000
S      -48.78910000     -32.33110000     -70.39250000
C      -44.75390000     -34.76900000     -73.15750000
H      -43.91410000     -34.87430000     -73.79560000
H      -44.82170000     -33.72390000     -72.96670000
C      -47.09770000     -32.14670000     -69.65310000
H      -47.28670000     -32.07150000     -68.56780000
H      -46.71870000     -31.17290000     -69.90310000
C      -46.25590000     -33.32080000     -70.11680000
H      -46.81850000     -34.27890000     -69.81610000
H      -46.15520000     -33.47430000     -71.23210000
C      -44.69460000     -35.61100000     -71.84980000
H      -44.42690000     -36.60050000     -72.23500000
H      -45.64750000     -35.62550000     -71.31160000
C      -43.53950000     -35.20020000     -70.99770000
C      -42.26190000     -35.64940000     -71.00120000
C      -43.77730000     -34.26730000     -69.89220000
H      -41.55500000     -36.20090000     -71.66690000
C      -42.60210000     -34.08700000     -69.14480000
C      -44.83990000     -33.46030000     -69.46250000
C      -44.51160000     -32.74270000     -68.33160000
S      -41.28860000     -35.10010000     -69.63660000
S      -42.84960000     -32.92660000     -67.79270000
H      -45.04200000     -31.90610000     -67.99100000
