40
Properties=species:S:1:pos:R:3 #=T CELL(abcABC):=T 1.889726e+02=T 90.00000=T Traj:=T positionsangstrom=T Step:=T 0=T Bead:=T pbc="F F F"
C      -41.69220000     -34.50150000     -71.76350000
C      -42.64030000     -33.71180000     -71.08050000
C      -43.89320000     -34.24170000     -70.83000000
C      -44.14610000     -35.63070000     -70.91760000
C      -43.09040000     -36.44470000     -71.48490000
C      -41.94120000     -35.90460000     -71.95560000
H      -40.72930000     -34.02210000     -72.04880000
H      -44.64860000     -33.61250000     -70.47380000
H      -43.37450000     -37.44290000     -71.86510000
H      -41.23700000     -36.61300000     -72.47180000
C      -45.50470000     -36.22370000     -70.52790000
H      -46.03920000     -35.44930000     -69.89360000
H      -45.30310000     -37.12950000     -69.94140000
C      -42.42070000     -32.21380000     -70.94040000
H      -42.69080000     -31.75640000     -70.01780000
H      -41.32130000     -32.11630000     -70.76540000
S      -46.38040000     -36.77680000     -72.05670000
S      -42.69950000     -30.98360000     -72.40300000
C      -46.23060000     -35.30090000     -73.15780000
H      -45.25680000     -34.89320000     -73.08960000
H      -46.28400000     -35.77290000     -74.15600000
C      -43.92630000     -31.93870000     -73.37770000
H      -43.81240000     -32.97620000     -72.99660000
H      -43.76180000     -31.97200000     -74.46370000
C      -45.33410000     -31.29730000     -73.17310000
H      -45.33230000     -30.23940000     -73.49200000
H      -46.12290000     -31.69150000     -73.88510000
C      -47.34440000     -34.25800000     -72.92120000
H      -48.29360000     -34.74440000     -73.15450000
H      -47.26250000     -33.52260000     -73.75630000
C      -47.42220000     -33.65860000     -71.56140000
C      -48.18890000     -34.24000000     -70.53970000
C      -46.85760000     -32.37470000     -71.21420000
H      -48.73060000     -35.11320000     -70.53560000
C      -47.11390000     -32.06270000     -69.86080000
C      -45.94730000     -31.39890000     -71.79190000
C      -45.72490000     -30.32340000     -70.95010000
S      -48.26260000     -33.20100000     -69.14990000
S      -46.49710000     -30.50570000     -69.37300000
H      -45.06620000     -29.46380000     -71.17610000
