40
Properties=species:S:1:pos:R:3 #=T CELL(abcABC):=T 1.889726e+02=T 90.00000=T Traj:=T positionsangstrom=T Step:=T 0=T Bead:=T pbc="F F F"
C      -42.15540000     -34.06870000     -72.55510000
C      -43.00370000     -33.47750000     -71.61160000
C      -43.98950000     -34.22480000     -71.03190000
C      -44.03280000     -35.63940000     -71.20170000
C      -43.15500000     -36.24820000     -72.12350000
C      -42.23420000     -35.43000000     -72.82450000
H      -41.19470000     -33.60680000     -72.83890000
H      -44.71850000     -33.80140000     -70.30870000
H      -43.26420000     -37.32800000     -72.44720000
H      -41.49590000     -35.88790000     -73.53450000
C      -45.08600000     -36.46940000     -70.59080000
H      -45.58470000     -36.21390000     -69.68770000
H      -44.65580000     -37.51750000     -70.36600000
C      -42.82680000     -32.03930000     -71.29840000
H      -43.44610000     -31.87320000     -70.42590000
H      -41.78590000     -31.76220000     -71.14640000
S      -46.33550000     -36.74880000     -71.90060000
S      -43.17630000     -30.94490000     -72.78720000
C      -46.34500000     -35.22300000     -72.98840000
H      -45.36180000     -34.90320000     -72.87600000
H      -46.67300000     -35.60890000     -73.97320000
C      -44.66450000     -31.66440000     -73.66380000
H      -44.58270000     -32.75500000     -73.75550000
H      -44.63310000     -31.38810000     -74.74180000
C      -45.94850000     -31.06650000     -73.03540000
H      -45.90890000     -29.99420000     -73.20450000
H      -46.86100000     -31.43720000     -73.65470000
C      -47.52920000     -34.21290000     -72.68890000
H      -48.55900000     -34.54520000     -72.85180000
H      -47.27710000     -33.40630000     -73.34170000
C      -47.39740000     -33.67560000     -71.29490000
C      -47.92340000     -34.35650000     -70.22410000
C      -46.70130000     -32.41620000     -70.84390000
H      -48.53240000     -35.25310000     -70.24920000
C      -46.64030000     -32.30000000     -69.48450000
C      -46.15850000     -31.29090000     -71.54290000
C      -45.64550000     -30.34170000     -70.63310000
S      -47.63610000     -33.55860000     -68.68260000
S      -45.78970000     -30.86710000     -68.95590000
H      -45.38300000     -29.33320000     -70.72340000
