40
Properties=species:S:1:pos:R:3 #=T CELL(abcABC):=T 1.889726e+02=T 90.00000=T Traj:=T positionsangstrom=T Step:=T 0=T Bead:=T pbc="F F F"
C      -41.71450000     -34.41110000     -72.54470000
C      -42.54930000     -33.56290000     -71.83010000
C      -43.62170000     -34.13730000     -71.09190000
C      -44.16450000     -35.39310000     -71.46310000
C      -43.44260000     -36.15640000     -72.38080000
C      -42.17830000     -35.68880000     -72.79290000
H      -40.81770000     -34.02210000     -73.05620000
H      -44.08600000     -33.51250000     -70.37360000
H      -43.69600000     -37.15170000     -72.62250000
H      -41.57770000     -36.42080000     -73.30990000
C      -45.44130000     -35.89740000     -70.77340000
H      -45.87010000     -35.00770000     -70.42050000
H      -45.20620000     -36.51220000     -69.89030000
C      -42.22550000     -32.13930000     -71.53980000
H      -42.55740000     -31.80240000     -70.53350000
H      -41.19540000     -31.89380000     -71.64610000
S      -46.74620000     -36.70840000     -71.89170000
S      -42.94130000     -30.92490000     -72.75510000
C      -46.95580000     -35.23000000     -72.97720000
H      -45.94300000     -34.83440000     -73.00990000
H      -47.04360000     -35.58140000     -74.00810000
C      -44.36320000     -31.79060000     -73.57530000
H      -44.24540000     -32.88100000     -73.43090000
H      -44.40430000     -31.48590000     -74.61930000
C      -45.72180000     -31.40430000     -73.03920000
H      -45.87310000     -30.37240000     -73.32510000
H      -46.41700000     -32.00580000     -73.61990000
C      -47.89300000     -34.21420000     -72.52290000
H      -48.94270000     -34.49800000     -72.53730000
H      -47.90280000     -33.36680000     -73.16110000
C      -47.63030000     -33.66730000     -71.14960000
C      -48.22050000     -34.12840000     -70.00130000
C      -46.79630000     -32.49170000     -70.81480000
H      -48.87210000     -35.01120000     -69.88310000
C      -46.74330000     -32.27960000     -69.43670000
C      -45.91050000     -31.55580000     -71.52240000
C      -45.32430000     -30.64040000     -70.66850000
S      -47.72510000     -33.35910000     -68.53560000
S      -45.74670000     -30.90190000     -68.95730000
H      -44.65370000     -29.75000000     -70.80860000
