40
Properties=species:S:1:pos:R:3 #=T CELL(abcABC):=T 1.889726e+02=T 90.00000=T Traj:=T positionsangstrom=T Step:=T 0=T Bead:=T pbc="F F F"
C      -42.00980000     -35.04610000     -73.14300000
C      -42.65620000     -34.18260000     -72.22940000
C      -43.79870000     -34.71810000     -71.65050000
C      -44.37940000     -35.93610000     -71.93420000
C      -43.61410000     -36.81060000     -72.69850000
C      -42.43770000     -36.37790000     -73.28990000
H      -41.10480000     -34.62240000     -73.57940000
H      -44.29280000     -34.03700000     -70.98380000
H      -44.13020000     -37.66640000     -73.00400000
H      -41.85550000     -36.97120000     -73.89390000
C      -45.47670000     -36.40190000     -70.97740000
H      -45.46310000     -35.74470000     -70.15500000
H      -45.33240000     -37.44910000     -70.59070000
C      -42.17610000     -32.76670000     -72.02480000
H      -42.45680000     -32.55290000     -71.00850000
H      -41.03530000     -32.73230000     -72.09220000
S      -47.25470000     -36.29630000     -71.74390000
S      -42.87310000     -31.52360000     -73.12760000
C      -47.06380000     -34.80280000     -72.82020000
H      -46.01760000     -34.61960000     -72.79480000
H      -47.36310000     -35.01610000     -73.81890000
C      -44.66410000     -31.84400000     -73.46570000
H      -44.91950000     -32.91150000     -73.41560000
H      -44.74320000     -31.59990000     -74.53010000
C      -45.57600000     -30.91450000     -72.64330000
H      -45.26070000     -29.88300000     -72.66050000
H      -46.61050000     -30.83910000     -72.94720000
C      -47.81140000     -33.55000000     -72.39510000
H      -48.84180000     -33.61610000     -72.51940000
H      -47.60830000     -32.72780000     -73.10490000
C      -47.54170000     -33.01490000     -70.98700000
C      -48.12560000     -33.66210000     -69.89070000
C      -46.50120000     -32.10500000     -70.50560000
H      -48.88690000     -34.42770000     -69.96760000
C      -46.53160000     -31.92770000     -69.14010000
C      -45.64140000     -31.11900000     -71.14670000
C      -45.08120000     -30.25390000     -70.21890000
S      -47.54660000     -33.05150000     -68.30870000
S      -45.37940000     -30.76050000     -68.53450000
H      -44.47300000     -29.34880000     -70.35800000
