40
Properties=species:S:1:pos:R:3 #=T CELL(abcABC):=T 1.889726e+02=T 90.00000=T Traj:=T positionsangstrom=T Step:=T 0=T Bead:=T pbc="F F F"
C      -45.66260000     -35.79280000     -74.45120000
C      -46.58520000     -35.56370000     -73.36910000
C      -47.33850000     -34.36550000     -73.31120000
C      -47.11970000     -33.36530000     -74.29060000
C      -46.33810000     -33.63700000     -75.41300000
C      -45.56870000     -34.86610000     -75.49410000
H      -45.03010000     -36.65510000     -74.36740000
H      -48.03660000     -34.16150000     -72.56800000
H      -46.45070000     -32.93080000     -76.20950000
H      -44.98760000     -34.89270000     -76.39910000
C      -47.87650000     -31.99560000     -74.22840000
H      -48.72400000     -32.01070000     -73.47780000
H      -48.38160000     -31.80410000     -75.13190000
C      -46.94960000     -36.66000000     -72.46200000
H      -47.63710000     -36.36940000     -71.64280000
H      -47.37800000     -37.39550000     -73.09070000
S      -46.69830000     -30.61650000     -73.80000000
S      -45.41760000     -37.42360000     -71.77800000
C      -46.12860000     -30.84730000     -72.05000000
H      -46.03140000     -29.88130000     -71.57820000
H      -46.87630000     -31.47450000     -71.49240000
C      -44.50780000     -35.92510000     -71.05000000
H      -43.79250000     -35.61280000     -71.88430000
H      -43.94380000     -36.42430000     -70.23610000
C      -45.48630000     -34.83700000     -70.47580000
H      -45.96760000     -34.19150000     -71.23960000
H      -46.41370000     -35.34930000     -69.94280000
C      -44.80060000     -31.52370000     -71.84480000
H      -44.08500000     -30.90100000     -72.40540000
H      -44.60700000     -32.45440000     -72.29050000
C      -44.33350000     -31.41260000     -70.33450000
C      -43.74790000     -30.28520000     -69.79640000
C      -44.30760000     -32.52430000     -69.42470000
H      -43.44560000     -29.35560000     -70.21080000
C      -43.68930000     -32.21130000     -68.20510000
C      -44.79260000     -33.95170000     -69.41740000
C      -44.69700000     -34.50060000     -68.15930000
S      -43.11640000     -30.56870000     -68.19230000
S      -43.99840000     -33.44150000     -66.94250000
H      -44.85250000     -35.52150000     -67.95610000
