40
Properties=species:S:1:pos:R:3 #=T CELL(abcABC):=T 1.889726e+02=T 90.00000=T Traj:=T positionsangstrom=T Step:=T 0=T Bead:=T pbc="F F F"
C      -42.15360000     -35.21310000     -73.09980000
C      -42.78810000     -34.25220000     -72.28510000
C      -43.91120000     -34.72940000     -71.56350000
C      -44.42310000     -36.03230000     -71.67060000
C      -43.76490000     -36.90520000     -72.49240000
C      -42.60640000     -36.50970000     -73.21500000
H      -41.37710000     -34.84320000     -73.69730000
H      -44.31420000     -33.92740000     -70.89500000
H      -43.86890000     -37.97520000     -72.32130000
H      -41.99200000     -37.24720000     -73.75510000
C      -45.62390000     -36.40240000     -70.88480000
H      -45.72910000     -35.76220000     -69.91330000
H      -45.63540000     -37.43800000     -70.63320000
C      -42.25390000     -32.88350000     -72.07500000
H      -42.36440000     -32.57110000     -71.04100000
H      -41.20670000     -32.84260000     -72.33530000
S      -47.14960000     -36.13260000     -71.90120000
S      -42.90250000     -31.42650000     -73.15930000
C      -47.03000000     -34.57830000     -72.92420000
H      -45.96870000     -34.34900000     -73.07390000
H      -47.36760000     -34.78480000     -73.99410000
C      -44.71860000     -31.73820000     -73.32400000
H      -45.02890000     -32.66200000     -72.83230000
H      -44.93070000     -31.77570000     -74.40460000
C      -45.63630000     -30.73430000     -72.58840000
H      -45.32400000     -29.71100000     -72.76910000
H      -46.57310000     -30.89250000     -73.14700000
C      -47.93040000     -33.39740000     -72.41250000
H      -48.97470000     -33.86510000     -72.36370000
H      -47.87250000     -32.53710000     -73.13320000
C      -47.54570000     -33.08030000     -70.95210000
C      -47.99400000     -33.79330000     -69.83340000
C      -46.53990000     -32.09210000     -70.54260000
H      -48.82960000     -34.47260000     -69.79340000
C      -46.36100000     -32.05750000     -69.19400000
C      -45.80470000     -30.98970000     -71.13690000
C      -45.08150000     -30.18680000     -70.29220000
S      -47.25440000     -33.25170000     -68.28790000
S      -45.30320000     -30.75840000     -68.64730000
H      -44.29420000     -29.41610000     -70.42040000
