40
Properties=species:S:1:pos:R:3 #=T CELL(abcABC):=T 1.889726e+02=T 90.00000=T Traj:=T positionsangstrom=T Step:=T 0=T Bead:=T pbc="F F F"
C      -42.28210000     -35.45510000     -72.80200000
C      -42.96640000     -34.44880000     -72.15440000
C      -44.18880000     -34.66730000     -71.54590000
C      -44.78370000     -36.00320000     -71.69310000
C      -44.15900000     -36.91110000     -72.55780000
C      -42.85540000     -36.66700000     -73.07800000
H      -41.31830000     -35.31920000     -73.21450000
H      -44.54470000     -34.00750000     -70.76240000
H      -44.60760000     -37.95290000     -72.57670000
H      -42.21210000     -37.43050000     -73.51700000
C      -46.13570000     -36.22570000     -71.13710000
H      -46.27010000     -35.46900000     -70.38660000
H      -46.20010000     -37.21850000     -70.56020000
C      -42.28710000     -33.07390000     -71.87350000
H      -42.55480000     -32.71710000     -70.87640000
H      -41.23360000     -33.29750000     -71.92590000
S      -47.65970000     -36.14520000     -72.11410000
S      -42.69380000     -31.75370000     -73.07500000
C      -47.40530000     -34.40690000     -72.78050000
H      -46.37960000     -34.16290000     -72.84930000
H      -47.79560000     -34.48870000     -73.76220000
C      -44.52320000     -31.99470000     -73.58360000
H      -44.73010000     -32.94810000     -73.20930000
H      -44.48360000     -31.96110000     -74.69680000
C      -45.47560000     -31.04160000     -72.80240000
H      -45.19720000     -29.95070000     -72.95390000
H      -46.43980000     -31.29170000     -73.16220000
C      -48.11300000     -33.26490000     -72.08760000
H      -49.15480000     -33.47920000     -71.94350000
H      -48.01780000     -32.38740000     -72.74470000
C      -47.44020000     -32.85560000     -70.78790000
C      -48.00070000     -33.32550000     -69.61600000
C      -46.34320000     -32.00400000     -70.45860000
H      -48.90300000     -33.95230000     -69.56470000
C      -46.10650000     -31.79940000     -69.09470000
C      -45.48210000     -31.22670000     -71.30740000
C      -44.51540000     -30.54290000     -70.61020000
S      -47.21510000     -32.69030000     -68.15740000
S      -44.63260000     -30.83240000     -68.86800000
H      -43.92430000     -29.70020000     -71.00630000
