40
Properties=species:S:1:pos:R:3 #=T CELL(abcABC):=T 1.889726e+02=T 90.00000=T Traj:=T positionsangstrom=T Step:=T 0=T Bead:=T pbc="F F F"
C      -42.05830000     -34.72920000     -73.05620000
C      -42.58700000     -33.95570000     -71.99330000
C      -43.58370000     -34.58390000     -71.32770000
C      -44.12000000     -35.83820000     -71.65150000
C      -43.44020000     -36.62840000     -72.53300000
C      -42.38420000     -36.04100000     -73.22940000
H      -41.31260000     -34.20950000     -73.65480000
H      -44.20300000     -34.01870000     -70.61280000
H      -43.85930000     -37.69760000     -72.58440000
H      -41.85850000     -36.53090000     -74.10760000
C      -45.36080000     -36.30090000     -70.93060000
H      -45.64980000     -35.65450000     -70.02980000
H      -45.15380000     -37.32410000     -70.58400000
C      -42.28260000     -32.48740000     -71.70490000
H      -43.02550000     -32.14530000     -70.94210000
H      -41.30140000     -32.24950000     -71.35220000
S      -46.84130000     -36.46560000     -72.20680000
S      -42.68440000     -31.49300000     -73.17840000
C      -46.91060000     -34.72440000     -72.77070000
H      -45.97020000     -34.27170000     -72.51700000
H      -46.98020000     -34.64650000     -73.82410000
C      -44.53290000     -31.98890000     -73.50790000
H      -44.53270000     -33.08550000     -73.35600000
H      -44.82440000     -31.79600000     -74.52870000
C      -45.63640000     -31.24080000     -72.76260000
H      -45.51780000     -30.17280000     -72.95600000
H      -46.53840000     -31.50840000     -73.17320000
C      -48.07380000     -33.84020000     -72.26040000
H      -48.95920000     -34.47010000     -72.02710000
H      -48.22720000     -33.03690000     -72.96330000
C      -47.78420000     -33.16450000     -70.89420000
C      -48.47600000     -33.61170000     -69.77500000
C      -46.71490000     -32.23780000     -70.53190000
H      -49.25180000     -34.40620000     -69.74980000
C      -46.60100000     -32.05450000     -69.13180000
C      -45.73250000     -31.39880000     -71.24160000
C      -45.11470000     -30.51690000     -70.38260000
S      -47.85990000     -32.92500000     -68.26360000
S      -45.52060000     -30.76880000     -68.67480000
H      -44.26860000     -29.96910000     -70.67540000
