40
Properties=species:S:1:pos:R:3 #=T CELL(abcABC):=T 1.889726e+02=T 90.00000=T Traj:=T positionsangstrom=T Step:=T 0=T Bead:=T pbc="F F F"
C      -41.94890000     -34.87030000     -73.03170000
C      -42.68860000     -33.98270000     -72.14750000
C      -43.75040000     -34.63680000     -71.57610000
C      -44.21580000     -35.93790000     -71.76900000
C      -43.58470000     -36.64200000     -72.83680000
C      -42.39990000     -36.21270000     -73.34400000
H      -40.98160000     -34.43860000     -73.42380000
H      -44.27800000     -34.19830000     -70.77770000
H      -43.96010000     -37.66630000     -72.91990000
H      -41.79350000     -36.74190000     -74.06130000
C      -45.45150000     -36.44560000     -71.08360000
H      -45.47750000     -35.93760000     -70.17290000
H      -45.30610000     -37.51970000     -70.78150000
C      -42.15780000     -32.61860000     -71.81760000
H      -42.42250000     -32.23670000     -70.82620000
H      -41.06370000     -32.54950000     -71.90290000
S      -47.00740000     -36.34990000     -71.86160000
S      -42.82250000     -31.48480000     -73.27010000
C      -47.14540000     -34.80790000     -72.92890000
H      -46.12490000     -34.50600000     -73.33130000
H      -47.67570000     -35.22600000     -73.80650000
C      -44.55560000     -31.94840000     -73.37770000
H      -44.56040000     -32.98490000     -72.95440000
H      -44.83310000     -32.01470000     -74.43190000
C      -45.57870000     -31.04320000     -72.60290000
H      -45.13240000     -30.04320000     -72.79630000
H      -46.56190000     -31.07520000     -73.18850000
C      -47.89010000     -33.64050000     -72.27170000
H      -48.91070000     -34.00090000     -72.37160000
H      -47.74830000     -32.77010000     -72.97420000
C      -47.54910000     -33.22120000     -70.88320000
C      -48.17920000     -33.75730000     -69.73450000
C      -46.67120000     -32.15600000     -70.49880000
H      -48.67580000     -34.70770000     -69.69240000
C      -46.69070000     -31.89160000     -69.09400000
C      -45.65360000     -31.37520000     -71.16000000
C      -44.96530000     -30.55830000     -70.26490000
S      -47.80240000     -32.91190000     -68.25950000
S      -45.44110000     -30.71880000     -68.61380000
H      -44.39050000     -29.72350000     -70.57620000
