40
Properties=species:S:1:pos:R:3 #=T CELL(abcABC):=T 1.889726e+02=T 90.00000=T Traj:=T positionsangstrom=T Step:=T 0=T Bead:=T pbc="F F F"
C      -42.69410000     -34.25420000     -71.27010000
C      -42.57660000     -32.84800000     -71.05020000
C      -42.92340000     -32.00570000     -72.08240000
C      -43.52020000     -32.44950000     -73.25000000
C      -43.68150000     -33.78910000     -73.46220000
C      -43.25470000     -34.73530000     -72.45510000
H      -42.44870000     -34.89350000     -70.40290000
H      -42.72910000     -30.92990000     -71.99950000
H      -44.23530000     -34.13420000     -74.31130000
H      -43.44470000     -35.73290000     -72.69920000
C      -43.96580000     -31.50970000     -74.32140000
H      -43.69160000     -31.80150000     -75.30440000
H      -43.58310000     -30.42600000     -74.20520000
C      -42.04070000     -32.35030000     -69.73130000
H      -41.27490000     -33.12750000     -69.37900000
H      -41.59250000     -31.33420000     -69.71820000
S      -45.75810000     -31.65440000     -74.34240000
S      -43.43250000     -32.41170000     -68.38490000
C      -46.34500000     -31.13410000     -72.75940000
H      -45.59280000     -31.20130000     -71.98470000
H      -46.56660000     -30.01840000     -72.82470000
C      -44.82490000     -31.48960000     -69.22320000
H      -44.47720000     -31.32380000     -70.27300000
H      -44.74590000     -30.44630000     -68.82820000
C      -46.21410000     -32.02070000     -69.01020000
H      -46.34060000     -32.20680000     -67.90940000
H      -46.98150000     -31.50450000     -69.50220000
C      -47.56730000     -31.92480000     -72.28390000
H      -48.36110000     -31.78250000     -73.02450000
H      -47.96640000     -31.41390000     -71.37260000
C      -47.24770000     -33.37090000     -72.04230000
C      -47.72620000     -34.31090000     -72.91830000
C      -46.82020000     -33.95480000     -70.79610000
H      -48.03040000     -34.04000000     -73.88130000
C      -47.01350000     -35.32950000     -70.74470000
C      -46.37240000     -33.47000000     -69.51130000
C      -46.08880000     -34.49960000     -68.60860000
S      -47.50520000     -35.99170000     -72.32410000
S      -46.51690000     -36.13280000     -69.28550000
H      -45.77270000     -34.42390000     -67.59490000
