40
Properties=species:S:1:pos:R:3 #=T CELL(abcABC):=T 1.889726e+02=T 90.00000=T Traj:=T positionsangstrom=T Step:=T 0=T Bead:=T pbc="F F F"
C      -42.98020000     -34.36710000     -71.23060000
C      -42.71400000     -32.97740000     -71.10940000
C      -43.09430000     -32.12190000     -72.13430000
C      -43.66940000     -32.57530000     -73.34600000
C      -43.78760000     -33.96760000     -73.50660000
C      -43.50480000     -34.83620000     -72.44210000
H      -42.71070000     -35.07140000     -70.50560000
H      -43.05110000     -31.03810000     -72.00430000
H      -44.21770000     -34.40150000     -74.46230000
H      -43.77310000     -35.95630000     -72.50290000
C      -44.00230000     -31.65400000     -74.49790000
H      -43.70650000     -32.07330000     -75.52840000
H      -43.49440000     -30.68400000     -74.52610000
C      -42.10490000     -32.43040000     -69.88190000
H      -41.11360000     -32.86780000     -69.65090000
H      -41.98020000     -31.35230000     -70.14190000
S      -45.81570000     -31.28710000     -74.43660000
S      -43.40390000     -32.64160000     -68.47050000
C      -46.37580000     -30.89660000     -72.52530000
H      -45.50640000     -31.09260000     -71.89500000
H      -46.59500000     -29.85080000     -72.63440000
C      -44.80170000     -31.73560000     -69.32370000
H      -44.78070000     -32.01480000     -70.38850000
H      -44.75250000     -30.61220000     -69.18640000
C      -46.18190000     -32.11260000     -68.79210000
H      -46.40240000     -32.08320000     -67.74610000
H      -46.82520000     -31.30520000     -69.22940000
C      -47.56280000     -31.69380000     -72.15720000
H      -48.28180000     -31.57220000     -73.05340000
H      -48.14050000     -31.24630000     -71.35440000
C      -47.29210000     -33.25290000     -71.87500000
C      -47.49820000     -34.18660000     -72.83700000
C      -46.81840000     -33.89000000     -70.63280000
H      -47.85360000     -33.90230000     -73.83660000
C      -46.69940000     -35.27170000     -70.74980000
C      -46.53940000     -33.52650000     -69.28920000
C      -46.30790000     -34.61270000     -68.47150000
S      -47.16640000     -35.84580000     -72.34380000
S      -46.38970000     -36.13800000     -69.32780000
H      -45.94700000     -34.58290000     -67.43280000
