40
Properties=species:S:1:pos:R:3 #=T CELL(abcABC):=T 1.889726e+02=T 90.00000=T Traj:=T positionsangstrom=T Step:=T 0=T Bead:=T pbc="F F F"
C      -42.92990000     -35.64040000     -73.09060000
C      -43.25010000     -34.66320000     -72.10260000
C      -44.32710000     -34.90980000     -71.30830000
C      -45.19960000     -36.04760000     -71.44870000
C      -44.87240000     -36.93230000     -72.48900000
C      -43.72300000     -36.73650000     -73.30500000
H      -42.02510000     -35.56860000     -73.58940000
H      -44.56910000     -34.10810000     -70.57890000
H      -45.36600000     -37.96750000     -72.65350000
H      -43.29090000     -37.55690000     -73.86290000
C      -46.43200000     -36.11990000     -70.65110000
H      -46.36470000     -35.42950000     -69.81660000
H      -46.70560000     -37.05850000     -70.11810000
C      -42.20540000     -33.52880000     -71.93720000
H      -42.36230000     -33.09580000     -70.88970000
H      -41.19080000     -34.00720000     -72.01950000
S      -47.98760000     -35.70110000     -71.61970000
S      -42.32570000     -32.26300000     -73.28620000
C      -47.45220000     -34.28690000     -72.68810000
H      -46.34990000     -34.33980000     -72.70660000
H      -47.86660000     -34.44900000     -73.70390000
C      -44.12870000     -32.17480000     -73.62620000
H      -44.62800000     -33.16360000     -73.55250000
H      -44.12960000     -31.90830000     -74.68440000
C      -44.87820000     -31.13930000     -72.87570000
H      -44.42120000     -30.21660000     -73.07310000
H      -45.91060000     -30.96370000     -73.39000000
C      -47.92230000     -32.84420000     -72.30590000
H      -49.03510000     -32.70800000     -72.34010000
H      -47.47740000     -32.26680000     -73.15710000
C      -47.35340000     -32.42000000     -70.96070000
C      -48.13050000     -32.66130000     -69.83200000
C      -46.04600000     -31.84610000     -70.65790000
H      -49.12890000     -33.03170000     -69.80110000
C      -45.88220000     -31.82940000     -69.29610000
C      -44.90460000     -31.39790000     -71.38090000
C      -43.98700000     -30.84060000     -70.47320000
S      -47.29430000     -32.29330000     -68.38570000
S      -44.38300000     -31.11290000     -68.72280000
H      -43.15250000     -30.27430000     -70.67530000
