40
Properties=species:S:1:pos:R:3 #=T CELL(abcABC):=T 1.889726e+02=T 90.00000=T Traj:=T positionsangstrom=T Step:=T 0=T Bead:=T pbc="F F F"
C      -42.80480000     -34.18430000     -70.99860000
C      -42.48580000     -32.85010000     -70.88920000
C      -42.87600000     -32.03390000     -72.01260000
C      -43.40020000     -32.53060000     -73.20250000
C      -43.41880000     -33.95170000     -73.34360000
C      -43.15920000     -34.75320000     -72.23740000
H      -42.58750000     -34.78100000     -70.13550000
H      -42.83750000     -30.98640000     -71.79990000
H      -43.55030000     -34.35680000     -74.34210000
H      -43.19270000     -35.81390000     -72.36910000
C      -43.99190000     -31.66060000     -74.24540000
H      -43.64390000     -31.77280000     -75.27740000
H      -43.66720000     -30.68130000     -73.97580000
C      -42.05690000     -32.29540000     -69.56470000
H      -41.26170000     -32.89020000     -69.15870000
H      -41.77750000     -31.23930000     -69.71650000
S      -45.79910000     -31.75330000     -74.46460000
S      -43.45360000     -32.33740000     -68.37650000
C      -46.33990000     -31.31390000     -72.76100000
H      -45.54630000     -31.59150000     -72.04440000
H      -46.47070000     -30.24680000     -72.76240000
C      -44.87090000     -31.43960000     -69.30500000
H      -44.67400000     -31.66460000     -70.30780000
H      -44.84880000     -30.37210000     -69.06840000
C      -46.32140000     -31.97650000     -69.13050000
H      -46.61320000     -31.76960000     -68.12080000
H      -46.94320000     -31.30030000     -69.74840000
C      -47.69120000     -31.87040000     -72.32080000
H      -48.51160000     -31.71400000     -73.00580000
H      -47.95200000     -31.30660000     -71.44050000
C      -47.55810000     -33.33410000     -71.91640000
C      -47.98750000     -34.31040000     -72.79450000
C      -46.90990000     -33.94080000     -70.79990000
H      -48.59580000     -34.22720000     -73.64370000
C      -46.92440000     -35.33290000     -70.89800000
C      -46.44180000     -33.42680000     -69.48870000
C      -45.94980000     -34.49440000     -68.79720000
S      -47.65330000     -35.90730000     -72.32150000
S      -46.18160000     -36.08450000     -69.49250000
H      -45.43330000     -34.45800000     -67.88790000
