40
Properties=species:S:1:pos:R:3 #=T CELL(abcABC):=T 1.889726e+02=T 90.00000=T Traj:=T positionsangstrom=T Step:=T 0=T Bead:=T pbc="F F F"
C      -42.81770000     -35.77960000     -72.99700000
C      -43.11150000     -34.79690000     -72.07160000
C      -44.27770000     -34.94460000     -71.29350000
C      -45.23450000     -35.90780000     -71.53840000
C      -44.93730000     -36.85840000     -72.52260000
C      -43.65490000     -36.87990000     -73.15250000
H      -41.89300000     -35.73850000     -73.57480000
H      -44.41580000     -34.16360000     -70.50080000
H      -45.69540000     -37.61130000     -72.83570000
H      -43.46440000     -37.66900000     -73.78020000
C      -46.47010000     -35.99650000     -70.68090000
H      -46.36220000     -35.29760000     -69.83700000
H      -46.54930000     -37.01620000     -70.31110000
C      -42.21430000     -33.59190000     -71.84090000
H      -42.35210000     -33.09670000     -70.95080000
H      -41.19470000     -33.90340000     -71.90410000
S      -47.95520000     -35.63390000     -71.67650000
S      -42.39530000     -32.42670000     -73.28460000
C      -47.46780000     -34.28060000     -72.80220000
H      -46.42800000     -34.37860000     -73.13640000
H      -48.07620000     -34.49520000     -73.67390000
C      -44.18730000     -32.20590000     -73.72220000
H      -44.66030000     -33.12900000     -73.40820000
H      -44.40970000     -32.08480000     -74.78320000
C      -44.92320000     -31.08280000     -72.87540000
H      -44.41610000     -30.05750000     -72.94430000
H      -45.95530000     -30.86060000     -73.39060000
C      -47.86430000     -32.87910000     -72.27880000
H      -48.90510000     -33.02260000     -72.08450000
H      -47.79430000     -32.15540000     -73.03730000
C      -47.39220000     -32.48540000     -70.88430000
C      -48.13500000     -32.68940000     -69.72480000
C      -46.15730000     -31.81900000     -70.62350000
H      -49.09070000     -33.24630000     -69.60490000
C      -45.93960000     -31.61170000     -69.24140000
C      -45.01670000     -31.32210000     -71.36080000
C      -43.99190000     -30.95870000     -70.52490000
S      -47.26960000     -32.10150000     -68.31380000
S      -44.28300000     -31.16720000     -68.84660000
H      -43.09020000     -30.64430000     -70.94600000
