40
Properties=species:S:1:pos:R:3 #=T CELL(abcABC):=T 1.889726e+02=T 90.00000=T Traj:=T positionsangstrom=T Step:=T 0=T Bead:=T pbc="F F F"
C      -42.86180000     -34.39170000     -71.28220000
C      -42.56670000     -33.02630000     -71.12550000
C      -42.96710000     -32.11770000     -72.12790000
C      -43.62280000     -32.52550000     -73.27460000
C      -43.79520000     -33.91990000     -73.47840000
C      -43.29020000     -34.83720000     -72.54790000
H      -42.55880000     -35.08890000     -70.48150000
H      -42.78190000     -31.07140000     -72.06210000
H      -44.09830000     -34.28250000     -74.48670000
H      -43.35990000     -35.89260000     -72.80200000
C      -44.04440000     -31.45760000     -74.37910000
H      -43.74070000     -31.83060000     -75.34730000
H      -43.61200000     -30.52070000     -74.12200000
C      -42.13080000     -32.49130000     -69.80120000
H      -41.30470000     -33.10680000     -69.43570000
H      -41.83580000     -31.47750000     -69.87190000
S      -45.89430000     -31.32060000     -74.45110000
S      -43.40590000     -32.44160000     -68.43780000
C      -46.23080000     -31.09540000     -72.55000000
H      -45.41610000     -31.65600000     -72.16550000
H      -46.15950000     -30.06510000     -72.20260000
C      -44.72460000     -31.40890000     -69.20790000
H      -44.59690000     -31.35910000     -70.25070000
H      -44.73670000     -30.39670000     -68.84070000
C      -46.15500000     -32.10060000     -68.96170000
H      -46.30950000     -31.91950000     -67.86070000
H      -46.83040000     -31.34130000     -69.34290000
C      -47.50800000     -31.84840000     -72.04510000
H      -48.34040000     -31.73240000     -72.72970000
H      -47.81520000     -31.46250000     -71.09470000
C      -47.21650000     -33.35100000     -71.96050000
C      -47.51400000     -34.29270000     -72.91950000
C      -46.81440000     -33.98760000     -70.70390000
H      -47.92050000     -33.92190000     -73.81910000
C      -46.91970000     -35.37610000     -70.73610000
C      -46.39630000     -33.51360000     -69.44550000
C      -46.28440000     -34.56450000     -68.53800000
S      -47.32400000     -35.92840000     -72.39680000
S      -46.53780000     -36.15180000     -69.24080000
H      -46.06160000     -34.46010000     -67.46530000
