40
Properties=species:S:1:pos:R:3 #=T CELL(abcABC):=T 1.889726e+02=T 90.00000=T Traj:=T positionsangstrom=T Step:=T 0=T Bead:=T pbc="F F F"
C      -42.57560000     -34.32850000     -71.06180000
C      -42.51680000     -32.94720000     -70.85370000
C      -42.89660000     -32.11140000     -71.89540000
C      -43.47660000     -32.62470000     -73.05720000
C      -43.62190000     -34.03700000     -73.17630000
C      -43.15320000     -34.85740000     -72.18500000
H      -42.21810000     -34.95500000     -70.27640000
H      -42.71740000     -31.00390000     -71.76210000
H      -44.23220000     -34.38070000     -74.02320000
H      -43.25790000     -35.99520000     -72.16280000
C      -43.83860000     -31.70530000     -74.17360000
H      -43.43220000     -32.09810000     -75.17700000
H      -43.47080000     -30.70500000     -73.93460000
C      -42.12090000     -32.22770000     -69.51730000
H      -41.26880000     -32.58800000     -68.91400000
H      -41.82260000     -31.20610000     -69.79030000
S      -45.78940000     -31.87250000     -74.34710000
S      -43.61810000     -32.17520000     -68.37330000
C      -46.33270000     -31.18260000     -72.69180000
H      -45.60730000     -31.32330000     -71.82640000
H      -46.48280000     -30.11900000     -72.69630000
C      -44.91800000     -31.28280000     -69.25790000
H      -44.67240000     -31.25400000     -70.33310000
H      -45.04170000     -30.19910000     -69.05390000
C      -46.22520000     -31.96830000     -69.02900000
H      -46.49790000     -31.98670000     -67.97440000
H      -47.07140000     -31.29780000     -69.38010000
C      -47.68670000     -31.91260000     -72.30500000
H      -48.40190000     -31.74300000     -73.17700000
H      -48.05530000     -31.39750000     -71.41100000
C      -47.57100000     -33.36810000     -72.01330000
C      -48.06420000     -34.26690000     -72.91620000
C      -46.91530000     -33.89070000     -70.87210000
H      -48.77870000     -34.19110000     -73.77000000
C      -46.94550000     -35.27680000     -70.95170000
C      -46.28830000     -33.35300000     -69.62610000
C      -45.71140000     -34.40440000     -68.98000000
S      -47.77370000     -35.95710000     -72.31320000
S      -46.01950000     -36.07310000     -69.71200000
H      -45.41180000     -34.32230000     -67.95930000
