40
Properties=species:S:1:pos:R:3 #=T CELL(abcABC):=T 1.889726e+02=T 90.00000=T Traj:=T positionsangstrom=T Step:=T 0=T Bead:=T pbc="F F F"
C      -42.83700000     -36.24060000     -72.87020000
C      -43.04030000     -35.07980000     -71.97500000
C      -44.26400000     -35.01160000     -71.32240000
C      -45.34950000     -35.89130000     -71.50690000
C      -45.12070000     -36.99950000     -72.35310000
C      -43.88710000     -37.13030000     -73.06320000
H      -41.86730000     -36.28860000     -73.36670000
H      -44.57510000     -34.23460000     -70.65590000
H      -45.83220000     -37.68580000     -72.58420000
H      -43.71390000     -38.01460000     -73.74910000
C      -46.60740000     -35.63860000     -70.70750000
H      -46.57170000     -34.72160000     -70.07010000
H      -46.88420000     -36.47570000     -70.02420000
C      -42.06760000     -33.90650000     -71.90460000
H      -42.33700000     -33.48980000     -70.92320000
H      -41.08260000     -34.16900000     -72.04060000
S      -48.00380000     -35.42650000     -71.93890000
S      -42.33660000     -32.62140000     -73.32390000
C      -47.54580000     -33.79430000     -72.75480000
H      -46.45970000     -33.78590000     -72.72520000
H      -48.04660000     -33.86680000     -73.74690000
C      -44.17850000     -32.54720000     -73.64840000
H      -44.61420000     -33.56010000     -73.41230000
H      -44.24410000     -32.42790000     -74.74160000
C      -44.98520000     -31.37150000     -72.98520000
H      -44.49850000     -30.40440000     -73.36990000
H      -45.99110000     -31.36290000     -73.29560000
C      -48.09010000     -32.58120000     -72.09000000
H      -49.12630000     -32.64060000     -71.82880000
H      -47.91420000     -31.79570000     -72.74530000
C      -47.45470000     -32.31140000     -70.76260000
C      -48.08710000     -32.61320000     -69.58990000
C      -46.14850000     -31.77680000     -70.56580000
H      -49.08180000     -32.98880000     -69.54320000
C      -45.76510000     -31.69510000     -69.22170000
C      -45.04350000     -31.33810000     -71.45520000
C      -44.01540000     -30.82230000     -70.68950000
S      -47.06200000     -32.14490000     -68.15070000
S      -44.20300000     -30.90160000     -68.98470000
H      -43.11090000     -30.27810000     -71.05950000
