40
Properties=species:S:1:pos:R:3 #=T CELL(abcABC):=T 1.889726e+02=T 90.00000=T Traj:=T positionsangstrom=T Step:=T 0=T Bead:=T pbc="F F F"
C      -43.01160000     -36.30960000     -72.53540000
C      -43.42220000     -35.07830000     -71.92930000
C      -44.67310000     -34.98640000     -71.34880000
C      -45.58690000     -36.08500000     -71.44810000
C      -45.19140000     -37.20110000     -72.04960000
C      -43.86140000     -37.35070000     -72.46440000
H      -42.00970000     -36.36380000     -72.92580000
H      -44.78720000     -34.06100000     -70.81290000
H      -45.82360000     -38.14690000     -72.21620000
H      -43.57390000     -38.22340000     -72.90790000
C      -46.90950000     -35.99550000     -70.77110000
H      -46.92910000     -35.28970000     -69.93500000
H      -47.19040000     -36.89920000     -70.27410000
C      -42.46010000     -33.89140000     -71.87280000
H      -42.67690000     -33.31400000     -71.01420000
H      -41.51240000     -34.39030000     -71.88100000
S      -48.25760000     -35.41060000     -71.93220000
S      -42.44660000     -32.82620000     -73.32860000
C      -47.42540000     -33.94100000     -72.72660000
H      -46.38210000     -34.12920000     -72.51390000
H      -47.75040000     -33.80800000     -73.79170000
C      -44.14430000     -32.39500000     -73.81360000
H      -44.84340000     -33.21850000     -73.69960000
H      -44.03450000     -32.16260000     -74.83580000
C      -44.84390000     -31.20330000     -73.10470000
H      -44.25270000     -30.37990000     -73.44360000
H      -45.91730000     -31.13410000     -73.47830000
C      -47.94100000     -32.62020000     -72.03910000
H      -48.96990000     -32.78180000     -71.91890000
H      -47.76440000     -31.76590000     -72.70540000
C      -47.26200000     -32.27900000     -70.75800000
C      -47.77020000     -32.60600000     -69.55220000
C      -45.94310000     -31.60180000     -70.68880000
H      -48.81840000     -32.93390000     -69.38110000
C      -45.59030000     -31.41890000     -69.33220000
C      -44.85220000     -31.13900000     -71.57950000
C      -43.75220000     -30.62350000     -70.89730000
S      -46.81490000     -32.04460000     -68.21920000
S      -44.02390000     -30.79280000     -69.15500000
H      -42.87510000     -30.11460000     -71.22050000
