40
Properties=species:S:1:pos:R:3 #=T CELL(abcABC):=T 1.889726e+02=T 90.00000=T Traj:=T positionsangstrom=T Step:=T 0=T Bead:=T pbc="F F F"
C      -43.20900000     -36.59820000     -72.25740000
C      -43.42710000     -35.35120000     -71.62160000
C      -44.66570000     -35.02270000     -71.01290000
C      -45.73760000     -35.97410000     -70.95760000
C      -45.44690000     -37.22330000     -71.44980000
C      -44.19290000     -37.52710000     -72.08800000
H      -42.28210000     -36.90870000     -72.84590000
H      -44.90990000     -33.96890000     -70.65590000
H      -46.12980000     -38.03380000     -71.32880000
H      -44.08630000     -38.62980000     -72.33660000
C      -47.09640000     -35.55490000     -70.55560000
H      -47.06680000     -34.74030000     -69.84610000
H      -47.51770000     -36.36490000     -69.94270000
C      -42.28260000     -34.33670000     -71.55180000
H      -42.44570000     -33.67630000     -70.65210000
H      -41.38780000     -34.75330000     -71.28620000
S      -48.36210000     -35.30190000     -71.85600000
S      -42.24370000     -33.31580000     -73.04510000
C      -47.65960000     -34.08850000     -73.02310000
H      -46.70240000     -34.44180000     -73.36620000
H      -48.22330000     -34.23570000     -73.91410000
C      -44.03530000     -32.92380000     -73.58370000
H      -44.68670000     -33.68560000     -73.09170000
H      -44.00220000     -32.96700000     -74.66030000
C      -44.49210000     -31.50820000     -73.22680000
H      -43.83870000     -30.76140000     -73.71680000
H      -45.48140000     -31.43180000     -73.66940000
C      -47.77460000     -32.62100000     -72.51990000
H      -48.86500000     -32.39080000     -72.49130000
H      -47.33230000     -31.88810000     -73.21180000
C      -47.11790000     -32.19550000     -71.19000000
C      -47.80550000     -32.31140000     -70.03120000
C      -45.73490000     -31.61200000     -70.95520000
H      -48.86230000     -32.45640000     -69.96210000
C      -45.60620000     -31.11580000     -69.63910000
C      -44.54790000     -31.29920000     -71.69710000
C      -43.52570000     -30.70200000     -71.01440000
S      -46.96010000     -31.58870000     -68.63700000
S      -44.07400000     -30.32330000     -69.31610000
H      -42.57940000     -30.32880000     -71.39470000
