40
Properties=species:S:1:pos:R:3 #=T CELL(abcABC):=T 1.889726e+02=T 90.00000=T Traj:=T positionsangstrom=T Step:=T 0=T Bead:=T pbc="F F F"
C      -46.66880000     -34.30050000     -74.69810000
C      -47.42910000     -33.39590000     -73.99590000
C      -46.88280000     -32.10470000     -73.69380000
C      -45.63610000     -31.71800000     -74.17840000
C      -44.91960000     -32.68570000     -74.96920000
C      -45.40140000     -33.95420000     -75.13330000
H      -47.18800000     -35.28200000     -74.78220000
H      -47.35830000     -31.40160000     -73.06540000
H      -43.87970000     -32.47640000     -75.31080000
H      -44.78900000     -34.69780000     -75.67340000
C      -45.08150000     -30.30820000     -73.94330000
H      -45.85470000     -29.68800000     -73.55220000
H      -44.74610000     -29.84930000     -74.91020000
C      -48.74150000     -33.81060000     -73.37430000
H      -49.13530000     -33.01260000     -72.86350000
H      -49.47710000     -34.02890000     -74.17630000
S      -43.60530000     -30.20130000     -72.85010000
S      -48.75100000     -35.33090000     -72.35440000
C      -44.05250000     -31.35450000     -71.51990000
H      -43.69570000     -30.88120000     -70.53930000
H      -45.17770000     -31.43500000     -71.33460000
C      -47.87460000     -34.82100000     -70.85320000
H      -47.83390000     -35.85320000     -70.27700000
H      -48.48010000     -34.11060000     -70.40200000
C      -46.57830000     -34.15730000     -70.95180000
H      -45.97680000     -34.53180000     -71.72500000
H      -46.68540000     -33.06390000     -71.20700000
C      -43.43430000     -32.80090000     -71.63390000
H      -42.42710000     -32.81610000     -72.10670000
H      -44.12660000     -33.36750000     -72.28470000
C      -43.29570000     -33.49560000     -70.32100000
C      -42.06620000     -33.57190000     -69.68160000
C      -44.35440000     -33.90050000     -69.45540000
H      -41.12010000     -33.47430000     -70.02070000
C      -43.95020000     -34.28120000     -68.17550000
C      -45.78200000     -34.21140000     -69.63370000
C      -46.37940000     -34.50560000     -68.43770000
S      -42.16910000     -34.22210000     -68.09660000
S      -45.27100000     -34.52450000     -67.07590000
H      -47.39490000     -34.75610000     -68.17800000
