40
Properties=species:S:1:pos:R:3 #=T CELL(abcABC):=T 1.889726e+02=T 90.00000=T Traj:=T positionsangstrom=T Step:=T 0=T Bead:=T pbc="F F F"
C      -46.53780000     -34.35930000     -74.51510000
C      -47.40310000     -33.35570000     -73.95830000
C      -46.91110000     -32.05830000     -73.77060000
C      -45.60280000     -31.70540000     -74.19270000
C      -44.81050000     -32.73620000     -74.79520000
C      -45.30100000     -34.02570000     -75.00800000
H      -46.88970000     -35.37880000     -74.55820000
H      -47.55630000     -31.37240000     -73.23860000
H      -43.82510000     -32.38300000     -75.19620000
H      -44.53120000     -34.74560000     -75.35380000
C      -45.15450000     -30.30430000     -73.99290000
H      -45.96230000     -29.77150000     -73.46940000
H      -45.05730000     -29.71460000     -74.97980000
C      -48.67140000     -33.74880000     -73.36070000
H      -49.00420000     -32.89840000     -72.73960000
H      -49.47320000     -33.88470000     -74.11400000
S      -43.62250000     -30.32510000     -72.94150000
S      -48.57400000     -35.37490000     -72.43900000
C      -43.97440000     -31.45410000     -71.51090000
H      -43.46320000     -31.04150000     -70.73400000
H      -44.99600000     -31.52460000     -71.23070000
C      -47.91350000     -34.80860000     -70.81470000
H      -47.68410000     -35.73640000     -70.17570000
H      -48.73200000     -34.46260000     -70.19560000
C      -46.70470000     -33.94660000     -70.85890000
H      -45.99790000     -34.19900000     -71.65880000
H      -46.98670000     -32.90520000     -71.13690000
C      -43.45680000     -32.94750000     -71.76150000
H      -42.46010000     -32.90940000     -72.22690000
H      -44.18020000     -33.53160000     -72.39460000
C      -43.37620000     -33.53770000     -70.41320000
C      -42.15190000     -33.80460000     -69.85330000
C      -44.45940000     -33.88250000     -69.48490000
H      -41.22270000     -33.55370000     -70.26410000
C      -43.98710000     -34.20930000     -68.21020000
C      -45.93220000     -33.93360000     -69.57320000
C      -46.48100000     -34.07560000     -68.31370000
S      -42.24670000     -34.24050000     -68.08430000
S      -45.23440000     -34.53510000     -67.03270000
H      -47.51830000     -34.21860000     -68.02850000
