40
Properties=species:S:1:pos:R:3 #=T CELL(abcABC):=T 1.889726e+02=T 90.00000=T Traj:=T positionsangstrom=T Step:=T 0=T Bead:=T pbc="F F F"
C      -43.46850000     -36.57860000     -72.20450000
C      -43.53510000     -35.37270000     -71.53130000
C      -44.73290000     -35.04160000     -70.87020000
C      -45.75390000     -35.94920000     -70.67970000
C      -45.63600000     -37.25460000     -71.31840000
C      -44.50830000     -37.55340000     -72.06390000
H      -42.68280000     -36.83320000     -72.90300000
H      -44.86650000     -34.04330000     -70.49750000
H      -46.44950000     -37.90270000     -71.24560000
H      -44.36880000     -38.51590000     -72.46240000
C      -47.04060000     -35.50380000     -70.04320000
H      -46.85210000     -34.63070000     -69.44210000
H      -47.40990000     -36.33120000     -69.41900000
C      -42.41940000     -34.39970000     -71.44500000
H      -42.58540000     -33.78780000     -70.57750000
H      -41.40670000     -34.88510000     -71.29580000
S      -48.34710000     -34.99340000     -71.25270000
S      -42.12440000     -33.45220000     -73.06090000
C      -47.48350000     -34.25080000     -72.65360000
H      -46.43630000     -34.65830000     -72.64340000
H      -48.11330000     -34.62210000     -73.53370000
C      -43.80620000     -33.02870000     -73.77040000
H      -44.63220000     -33.72690000     -73.46800000
H      -43.59480000     -33.27120000     -74.83430000
C      -44.18150000     -31.60440000     -73.40520000
H      -43.36380000     -30.87770000     -73.55910000
H      -45.12330000     -31.48060000     -74.01940000
C      -47.52400000     -32.67860000     -72.75230000
H      -48.50250000     -32.24900000     -73.08790000
H      -46.87230000     -32.43740000     -73.60470000
C      -47.02320000     -32.00280000     -71.54800000
C      -47.94490000     -31.82630000     -70.51100000
C      -45.69780000     -31.57950000     -71.19850000
H      -48.95640000     -32.05030000     -70.61630000
C      -45.67200000     -31.11170000     -69.85360000
C      -44.43440000     -31.49150000     -71.90750000
C      -43.43780000     -31.08310000     -71.03640000
S      -47.23070000     -31.20480000     -68.98420000
S      -44.01520000     -30.70710000     -69.39630000
H      -42.40410000     -30.72880000     -71.28270000
