40
Properties=species:S:1:pos:R:3 #=T CELL(abcABC):=T 1.889726e+02=T 90.00000=T Traj:=T positionsangstrom=T Step:=T 0=T Bead:=T pbc="F F F"
C      -46.61980000     -34.50750000     -75.06770000
C      -47.23880000     -33.61630000     -74.14100000
C      -46.66970000     -32.40130000     -73.89600000
C      -45.48840000     -32.04880000     -74.45290000
C      -44.73680000     -33.00900000     -75.17750000
C      -45.40330000     -34.20490000     -75.56480000
H      -47.20560000     -35.35380000     -75.31010000
H      -47.14200000     -31.68980000     -73.16430000
H      -43.74670000     -32.91750000     -75.52410000
H      -44.77750000     -34.95790000     -76.15240000
C      -44.90280000     -30.66900000     -74.30510000
H      -45.62490000     -30.03230000     -73.94080000
H      -44.48490000     -30.20860000     -75.24970000
C      -48.57060000     -33.96560000     -73.49530000
H      -49.01840000     -33.05980000     -73.18410000
H      -49.27010000     -34.61600000     -74.20420000
S      -43.33580000     -30.48570000     -73.12500000
S      -48.42500000     -35.14690000     -72.00420000
C      -43.87300000     -31.47180000     -71.60890000
H      -43.36660000     -31.07180000     -70.70700000
H      -44.96500000     -31.19990000     -71.41440000
C      -48.21900000     -33.92130000     -70.67370000
H      -48.46360000     -34.52880000     -69.80600000
H      -48.85160000     -33.09170000     -70.86350000
C      -46.81710000     -33.31180000     -70.56960000
H      -46.19750000     -33.71860000     -71.42930000
H      -46.95700000     -32.22800000     -70.63980000
C      -43.56290000     -32.99070000     -71.63120000
H      -42.63620000     -33.03850000     -72.17240000
H      -44.34620000     -33.39550000     -72.29900000
C      -43.46920000     -33.55540000     -70.24410000
C      -42.28250000     -33.77830000     -69.62640000
C      -44.58810000     -33.81990000     -69.35720000
H      -41.29600000     -33.73170000     -70.00870000
C      -44.13350000     -34.39140000     -68.15860000
C      -46.03000000     -33.64490000     -69.29000000
C      -46.57060000     -33.90360000     -68.04640000
S      -42.39770000     -34.28770000     -67.98810000
S      -45.37640000     -34.47760000     -66.96510000
H      -47.60100000     -34.07650000     -67.89000000
