40
Properties=species:S:1:pos:R:3 #=T CELL(abcABC):=T 1.889726e+02=T 90.00000=T Traj:=T positionsangstrom=T Step:=T 0=T Bead:=T pbc="F F F"
C      -43.36880000     -36.69920000     -70.65570000
C      -43.57010000     -35.31150000     -70.78780000
C      -44.79240000     -34.80080000     -70.42140000
C      -45.85220000     -35.59750000     -69.93140000
C      -45.69470000     -36.98740000     -69.78540000
C      -44.41740000     -37.48240000     -70.15420000
H      -42.37140000     -37.05280000     -70.83060000
H      -44.95960000     -33.75020000     -70.51660000
H      -46.50620000     -37.61070000     -69.53740000
H      -44.17520000     -38.54890000     -69.95730000
C      -47.04410000     -34.87660000     -69.46340000
H      -46.77820000     -33.77630000     -69.24490000
H      -47.41720000     -35.33440000     -68.55180000
C      -42.38620000     -34.45200000     -71.17900000
H      -42.39860000     -33.52120000     -70.63050000
H      -41.39380000     -34.85590000     -70.98860000
S      -48.61190000     -34.88070000     -70.51950000
S      -42.27030000     -34.28890000     -73.01580000
C      -48.01710000     -34.66540000     -72.26000000
H      -47.07040000     -35.25400000     -72.27270000
H      -48.77830000     -35.07210000     -72.89170000
C      -43.89410000     -34.00020000     -73.71660000
H      -44.65030000     -34.52140000     -73.16960000
H      -43.83960000     -34.52710000     -74.68900000
C      -44.23970000     -32.50670000     -74.00330000
H      -43.24890000     -32.10800000     -74.42630000
H      -44.99300000     -32.49210000     -74.80660000
C      -47.67480000     -33.28640000     -72.74040000
H      -48.61580000     -32.79050000     -73.07450000
H      -47.05270000     -33.37060000     -73.63300000
C      -47.00780000     -32.28390000     -71.83430000
C      -47.70530000     -31.68240000     -70.74800000
C      -45.62800000     -31.70670000     -71.80850000
H      -48.72740000     -31.96070000     -70.44780000
C      -45.41590000     -30.72150000     -70.78950000
C      -44.47340000     -31.71490000     -72.73380000
C      -43.49910000     -30.88320000     -72.35900000
S      -46.81780000     -30.58920000     -69.74690000
S      -43.84520000     -29.96220000     -70.88000000
H      -42.57930000     -30.66870000     -72.88130000
