40
Properties=species:S:1:pos:R:3 #=T CELL(abcABC):=T 1.889726e+02=T 90.00000=T Traj:=T positionsangstrom=T Step:=T 0=T Bead:=T pbc="F F F"
C      -46.58260000     -34.67430000     -74.93670000
C      -47.27320000     -33.78880000     -74.14310000
C      -46.85400000     -32.46390000     -74.12800000
C      -45.55750000     -32.05270000     -74.57760000
C      -44.83500000     -33.00870000     -75.29070000
C      -45.31240000     -34.26120000     -75.43560000
H      -46.85740000     -35.68850000     -74.94940000
H      -47.36720000     -31.69910000     -73.58050000
H      -43.76680000     -32.80220000     -75.57590000
H      -44.80560000     -35.02980000     -75.97750000
C      -44.99190000     -30.72410000     -74.14590000
H      -45.65530000     -30.42230000     -73.25970000
H      -45.10110000     -30.01180000     -74.94990000
C      -48.52520000     -34.24830000     -73.47960000
H      -49.33180000     -33.37910000     -73.55270000
H      -48.84320000     -35.16640000     -73.94470000
S      -43.26750000     -30.76350000     -73.45410000
S      -48.27000000     -34.70640000     -71.69070000
C      -43.61050000     -31.35600000     -71.75570000
H      -42.90550000     -30.87770000     -70.99830000
H      -44.61360000     -31.02670000     -71.44720000
C      -48.17120000     -33.13400000     -70.70060000
H      -48.69670000     -33.33420000     -69.72780000
H      -48.69620000     -32.38500000     -71.31140000
C      -46.71320000     -32.78730000     -70.44260000
H      -46.11710000     -32.84430000     -71.31520000
H      -46.61990000     -31.72640000     -70.14770000
C      -43.43320000     -32.88940000     -71.60130000
H      -42.50760000     -33.16520000     -72.23780000
H      -44.22810000     -33.36680000     -72.13310000
C      -43.40440000     -33.40260000     -70.17490000
C      -42.30810000     -33.79660000     -69.50340000
C      -44.60420000     -33.77160000     -69.35380000
H      -41.22460000     -33.74230000     -69.82460000
C      -44.23330000     -34.35010000     -68.12050000
C      -45.99980000     -33.58400000     -69.35730000
C      -46.64690000     -34.01840000     -68.21740000
S      -42.48860000     -34.51220000     -67.85630000
S      -45.58440000     -34.83340000     -67.09430000
H      -47.63290000     -33.67990000     -67.91630000
