40
Properties=species:S:1:pos:R:3 #=T CELL(abcABC):=T 1.889726e+02=T 90.00000=T Traj:=T positionsangstrom=T Step:=T 0=T Bead:=T pbc="F F F"
C      -43.53040000     -36.85290000     -70.89500000
C      -43.39350000     -35.45770000     -70.78920000
C      -44.52480000     -34.72700000     -70.27620000
C      -45.64290000     -35.42560000     -69.74110000
C      -45.59360000     -36.80450000     -69.62350000
C      -44.56980000     -37.51890000     -70.25780000
H      -42.66390000     -37.36940000     -71.28550000
H      -44.47400000     -33.64790000     -70.37170000
H      -46.46550000     -37.35310000     -69.21790000
H      -44.64810000     -38.62510000     -70.24190000
C      -46.83860000     -34.62720000     -69.34260000
H      -46.68090000     -33.54610000     -69.21480000
H      -47.24280000     -35.06110000     -68.37180000
C      -42.36470000     -34.58330000     -71.49820000
H      -42.39920000     -33.54290000     -71.16780000
H      -41.41560000     -35.03240000     -71.22430000
S      -48.15250000     -34.91880000     -70.69820000
S      -42.42770000     -34.57760000     -73.29980000
C      -47.28290000     -34.45800000     -72.27660000
H      -46.23740000     -34.35140000     -72.03920000
H      -47.57470000     -35.22950000     -73.02810000
C      -44.17100000     -34.12550000     -73.81360000
H      -44.75160000     -34.63650000     -72.90210000
H      -44.21910000     -34.60070000     -74.79510000
C      -44.39670000     -32.60170000     -73.85650000
H      -43.64790000     -32.15340000     -74.46990000
H      -45.42940000     -32.50110000     -74.27100000
C      -47.70500000     -32.96650000     -72.85240000
H      -48.77250000     -32.77780000     -73.03490000
H      -47.17910000     -32.81790000     -73.78830000
C      -47.20340000     -31.99420000     -71.89550000
C      -47.95370000     -31.41760000     -70.87910000
C      -45.80610000     -31.59690000     -71.79100000
H      -49.06460000     -31.53690000     -70.91910000
C      -45.58010000     -30.75550000     -70.72190000
C      -44.54080000     -31.78170000     -72.51240000
C      -43.50520000     -31.21180000     -71.87210000
S      -47.01710000     -30.34160000     -69.80110000
S      -43.98360000     -30.19690000     -70.54120000
H      -42.48000000     -31.40610000     -72.22570000
