40
Properties=species:S:1:pos:R:3 #=T CELL(abcABC):=T 1.889726e+02=T 90.00000=T Traj:=T positionsangstrom=T Step:=T 0=T Bead:=T pbc="F F F"
C      -43.19180000     -36.26730000     -70.45340000
C      -43.55920000     -34.95050000     -70.21380000
C      -44.89970000     -34.60380000     -69.97260000
C      -45.84360000     -35.57710000     -69.88360000
C      -45.42760000     -36.96310000     -70.00870000
C      -44.14010000     -37.32420000     -70.37800000
H      -42.13280000     -36.37370000     -70.79470000
H      -45.19690000     -33.59460000     -69.98910000
H      -46.22780000     -37.73560000     -69.85190000
H      -43.95770000     -38.35600000     -70.56390000
C      -47.36830000     -35.45470000     -69.62080000
H      -47.64950000     -34.51200000     -69.05690000
H      -47.75040000     -36.32510000     -69.13190000
C      -42.55250000     -33.80700000     -70.55830000
H      -42.97230000     -32.89680000     -70.33320000
H      -41.59070000     -33.90610000     -70.07620000
S      -48.47530000     -35.37180000     -71.12640000
S      -41.98900000     -33.73830000     -72.33810000
C      -47.35480000     -34.82240000     -72.43030000
H      -46.29250000     -34.93380000     -72.13610000
H      -47.32340000     -35.50800000     -73.29750000
C      -43.57390000     -34.13130000     -73.36590000
H      -44.12400000     -34.82630000     -72.81370000
H      -43.21930000     -34.69080000     -74.24940000
C      -44.31110000     -32.91000000     -73.79380000
H      -43.79710000     -32.51160000     -74.69960000
H      -45.19530000     -33.34380000     -74.17250000
C      -47.59520000     -33.37760000     -72.91720000
H      -48.65960000     -33.16980000     -73.16820000
H      -47.15090000     -33.24660000     -73.91990000
C      -47.09210000     -32.40470000     -71.90300000
C      -47.89700000     -31.88550000     -70.87960000
C      -45.78370000     -31.74540000     -71.92870000
H      -48.93030000     -32.12450000     -70.69990000
C      -45.62500000     -30.75190000     -70.94930000
C      -44.55450000     -31.88410000     -72.72900000
C      -43.60580000     -30.98470000     -72.40660000
S      -47.07540000     -30.60690000     -69.98830000
S      -44.14270000     -29.88030000     -71.09550000
H      -42.66190000     -30.87220000     -72.97880000
