40
Properties=species:S:1:pos:R:3 #=T CELL(abcABC):=T 1.889726e+02=T 90.00000=T Traj:=T positionsangstrom=T Step:=T 0=T Bead:=T pbc="F F F"
C      -43.21890000     -36.27630000     -70.59940000
C      -43.63320000     -34.96760000     -70.29700000
C      -44.97220000     -34.73880000     -69.98050000
C      -45.89440000     -35.76310000     -69.88550000
C      -45.49920000     -37.06460000     -70.08980000
C      -44.13940000     -37.32390000     -70.48600000
H      -42.25710000     -36.46520000     -70.97150000
H      -45.38410000     -33.72960000     -69.84930000
H      -46.21020000     -37.93090000     -70.11670000
H      -43.92930000     -38.32080000     -70.75880000
C      -47.24130000     -35.38030000     -69.45810000
H      -47.29640000     -34.37240000     -69.00100000
H      -47.54660000     -36.15210000     -68.77370000
C      -42.85900000     -33.70830000     -70.53650000
H      -43.59040000     -32.86220000     -70.45910000
H      -42.18040000     -33.51370000     -69.61410000
S      -48.43310000     -35.29120000     -70.93430000
S      -42.04240000     -33.66170000     -72.24980000
C      -47.45770000     -34.87490000     -72.42440000
H      -46.42640000     -35.11570000     -72.25560000
H      -47.91890000     -35.53540000     -73.18430000
C      -43.53090000     -34.08270000     -73.31710000
H      -44.27750000     -34.69060000     -72.70560000
H      -43.11860000     -34.60990000     -74.12350000
C      -44.32250000     -32.92740000     -73.87520000
H      -43.89860000     -32.47200000     -74.79880000
H      -45.29550000     -33.34710000     -74.20390000
C      -47.63190000     -33.39510000     -72.84270000
H      -48.67830000     -33.15600000     -73.01210000
H      -47.12780000     -33.23810000     -73.86890000
C      -47.05450000     -32.40810000     -71.86880000
C      -47.79120000     -31.87270000     -70.82010000
C      -45.74990000     -31.84000000     -71.98440000
H      -48.77500000     -32.04240000     -70.54590000
C      -45.55130000     -30.83840000     -71.04300000
C      -44.63910000     -31.81710000     -72.91110000
C      -43.70020000     -30.90880000     -72.59320000
S      -46.90110000     -30.58550000     -69.95840000
S      -44.05940000     -29.94730000     -71.19430000
H      -42.67070000     -30.83510000     -73.02640000
