40
Properties=species:S:1:pos:R:3 #=T CELL(abcABC):=T 1.889726e+02=T 90.00000=T Traj:=T positionsangstrom=T Step:=T 0=T Bead:=T pbc="F F F"
C      -43.46690000     -36.35040000     -70.87330000
C      -43.71460000     -35.00680000     -70.49130000
C      -44.89330000     -34.73760000     -69.82010000
C      -45.93470000     -35.70710000     -69.78330000
C      -45.69690000     -37.03130000     -70.15250000
C      -44.44430000     -37.35090000     -70.70670000
H      -42.46900000     -36.67300000     -71.35330000
H      -45.08290000     -33.71780000     -69.50040000
H      -46.52070000     -37.82430000     -70.05680000
H      -44.28230000     -38.37550000     -70.99040000
C      -47.33170000     -35.26190000     -69.22770000
H      -47.30810000     -34.23450000     -68.88310000
H      -47.65700000     -35.98900000     -68.51910000
C      -42.78500000     -33.87870000     -70.80990000
H      -43.19140000     -32.86610000     -70.65320000
H      -41.84750000     -34.02510000     -70.15920000
S      -48.44720000     -35.34180000     -70.75800000
S      -42.24760000     -33.88900000     -72.48590000
C      -47.38470000     -34.89000000     -72.26000000
H      -46.30580000     -35.09230000     -72.17560000
H      -47.79110000     -35.52530000     -73.07510000
C      -43.82610000     -34.06530000     -73.44970000
H      -44.52950000     -34.46280000     -72.63940000
H      -43.66680000     -34.78250000     -74.26540000
C      -44.39350000     -32.74990000     -73.99500000
H      -43.77110000     -32.20550000     -74.76750000
H      -45.25240000     -32.98930000     -74.64340000
C      -47.60940000     -33.38780000     -72.62820000
H      -48.63860000     -33.24960000     -72.78910000
H      -47.18660000     -33.27790000     -73.64750000
C      -46.95530000     -32.36900000     -71.73670000
C      -47.62690000     -31.81800000     -70.62310000
C      -45.70860000     -31.69260000     -71.98060000
H      -48.60570000     -32.13830000     -70.24010000
C      -45.40780000     -30.71580000     -71.05120000
C      -44.60510000     -31.76790000     -72.87400000
C      -43.59930000     -30.87900000     -72.62620000
S      -46.70680000     -30.53090000     -69.84860000
S      -43.84080000     -29.93210000     -71.20690000
H      -42.70620000     -30.63470000     -73.18980000
