40
Properties=species:S:1:pos:R:3 #=T CELL(abcABC):=T 1.889726e+02=T 90.00000=T Traj:=T positionsangstrom=T Step:=T 0=T Bead:=T pbc="F F F"
C      -47.29160000     -34.35090000     -74.77990000
C      -47.79880000     -33.74860000     -73.61960000
C      -47.33980000     -32.43610000     -73.26810000
C      -46.48540000     -31.79660000     -74.20350000
C      -46.04460000     -32.34730000     -75.40820000
C      -46.43900000     -33.64320000     -75.71120000
H      -47.67170000     -35.38060000     -75.05340000
H      -47.58140000     -32.00540000     -72.31900000
H      -45.45380000     -31.79540000     -76.08300000
H      -46.08330000     -34.05630000     -76.67380000
C      -45.91960000     -30.45570000     -73.88120000
H      -46.26460000     -30.01690000     -72.90660000
H      -46.03410000     -29.67770000     -74.62590000
C      -48.65580000     -34.57690000     -72.71800000
H      -49.61540000     -34.07250000     -72.44960000
H      -48.90850000     -35.48200000     -73.23950000
S      -44.06270000     -30.62340000     -73.57000000
S      -47.58080000     -35.15720000     -71.26870000
C      -43.84210000     -31.56000000     -72.02240000
H      -42.79160000     -31.42980000     -71.75970000
H      -44.42010000     -31.03800000     -71.26870000
C      -47.85190000     -33.72210000     -70.12190000
H      -48.26250000     -34.14750000     -69.17990000
H      -48.65780000     -33.17300000     -70.57330000
C      -46.72730000     -32.76670000     -69.80030000
H      -46.23730000     -32.21390000     -70.67020000
H      -47.12280000     -32.00540000     -69.11510000
C      -44.10950000     -33.06310000     -72.01760000
H      -43.51820000     -33.45050000     -72.80750000
H      -45.21450000     -33.24630000     -72.14900000
C      -43.55360000     -33.72160000     -70.76870000
C      -42.32700000     -34.36750000     -70.70840000
C      -44.26140000     -33.75940000     -69.50780000
H      -41.63690000     -34.39390000     -71.49030000
C      -43.42600000     -34.36830000     -68.51630000
C      -45.54280000     -33.35730000     -69.04060000
C      -45.69420000     -33.55850000     -67.68920000
S      -41.88440000     -34.97460000     -69.04940000
S      -44.27110000     -34.30900000     -66.91030000
H      -46.43690000     -33.34080000     -66.96840000
