40
Properties=species:S:1:pos:R:3 #=T CELL(abcABC):=T 1.889726e+02=T 90.00000=T Traj:=T positionsangstrom=T Step:=T 0=T Bead:=T pbc="F F F"
C      -43.09700000     -36.30780000     -70.13030000
C      -43.43540000     -34.96640000     -70.34990000
C      -44.73820000     -34.54560000     -70.25420000
C      -45.76040000     -35.43760000     -69.81980000
C      -45.38460000     -36.77280000     -69.60670000
C      -44.10150000     -37.22290000     -69.70600000
H      -42.04350000     -36.63500000     -70.20280000
H      -44.82280000     -33.42880000     -70.37320000
H      -46.22870000     -37.41310000     -69.29770000
H      -43.92710000     -38.29970000     -69.60280000
C      -47.19820000     -35.01640000     -69.73050000
H      -47.27380000     -33.91780000     -69.60670000
H      -47.76340000     -35.47730000     -68.91300000
C      -42.44980000     -33.89490000     -70.69850000
H      -42.84380000     -32.90790000     -70.58750000
H      -41.58120000     -33.97640000     -70.02290000
S      -48.11880000     -35.45700000     -71.28970000
S      -41.97700000     -34.04030000     -72.48490000
C      -47.07160000     -34.98110000     -72.69820000
H      -46.02580000     -35.22330000     -72.44060000
H      -47.25320000     -35.75810000     -73.48790000
C      -43.68440000     -34.03540000     -73.24580000
H      -44.45710000     -34.51190000     -72.58060000
H      -43.69050000     -34.65990000     -74.14530000
C      -44.03830000     -32.62970000     -73.61800000
H      -43.14630000     -32.26120000     -74.15150000
H      -44.76820000     -32.59690000     -74.37270000
C      -47.27280000     -33.49350000     -73.21860000
H      -48.32190000     -33.41450000     -73.54100000
H      -46.69060000     -33.41240000     -74.11280000
C      -47.03040000     -32.40150000     -72.19300000
C      -48.06960000     -31.91150000     -71.40990000
C      -45.84710000     -31.69760000     -71.94090000
H      -49.12670000     -32.23440000     -71.59750000
C      -45.96250000     -30.80170000     -70.89740000
C      -44.49250000     -31.71940000     -72.50640000
C      -43.66890000     -30.84310000     -71.91410000
S      -47.58860000     -30.66590000     -70.29490000
S      -44.46740000     -29.93950000     -70.66840000
H      -42.71400000     -30.62230000     -72.28280000
