40
Properties=species:S:1:pos:R:3 #=T CELL(abcABC):=T 1.889726e+02=T 90.00000=T Traj:=T positionsangstrom=T Step:=T 0=T Bead:=T pbc="F F F"
C      -42.92580000     -35.97590000     -70.05880000
C      -43.38340000     -34.62910000     -70.03260000
C      -44.70330000     -34.37160000     -69.67320000
C      -45.56450000     -35.47420000     -69.55510000
C      -45.14860000     -36.83480000     -69.60110000
C      -43.81250000     -37.05570000     -69.90530000
H      -41.89330000     -36.18660000     -70.36200000
H      -45.19240000     -33.39080000     -69.64880000
H      -45.85730000     -37.64540000     -69.43720000
H      -43.44710000     -38.04980000     -70.11630000
C      -47.06810000     -35.15950000     -69.48210000
H      -47.33750000     -34.05820000     -69.34620000
H      -47.59180000     -35.65420000     -68.65200000
C      -42.54580000     -33.35000000     -70.30670000
H      -43.12210000     -32.49260000     -70.33530000
H      -41.75440000     -33.27530000     -69.59510000
S      -47.96950000     -35.77830000     -71.03230000
S      -41.69650000     -33.51520000     -71.89960000
C      -46.83660000     -35.21640000     -72.37080000
H      -45.82910000     -34.91420000     -71.94620000
H      -46.61890000     -36.08410000     -73.02340000
C      -43.14730000     -34.00710000     -73.04330000
H      -43.65470000     -34.82860000     -72.48740000
H      -42.73260000     -34.49460000     -73.97070000
C      -44.06770000     -32.97390000     -73.67100000
H      -43.54150000     -32.43190000     -74.45120000
H      -44.85620000     -33.59700000     -74.23650000
C      -47.34310000     -33.99750000     -73.13790000
H      -48.38660000     -34.15470000     -73.50040000
H      -46.80070000     -33.83800000     -74.04490000
C      -47.20340000     -32.72810000     -72.32820000
C      -48.21170000     -32.20190000     -71.61060000
C      -46.03660000     -31.90220000     -72.28280000
H      -49.26720000     -32.59760000     -71.46640000
C      -46.21480000     -30.83040000     -71.41410000
C      -44.67570000     -31.90590000     -72.81750000
C      -44.00840000     -30.77170000     -72.40040000
S      -47.82920000     -30.79480000     -70.66890000
S      -44.86500000     -29.70440000     -71.29540000
H      -43.00130000     -30.49280000     -72.60010000
