40
Properties=species:S:1:pos:R:3 #=T CELL(abcABC):=T 1.889726e+02=T 90.00000=T Traj:=T positionsangstrom=T Step:=T 0=T Bead:=T pbc="F F F"
C      -47.32050000     -34.40420000     -74.95870000
C      -47.72020000     -33.86720000     -73.72780000
C      -47.45010000     -32.51740000     -73.43200000
C      -46.46380000     -31.84640000     -74.22530000
C      -46.00440000     -32.34660000     -75.44500000
C      -46.50980000     -33.60230000     -75.85070000
H      -47.65230000     -35.38460000     -75.32990000
H      -47.76940000     -32.08470000     -72.53850000
H      -45.19860000     -31.90890000     -76.05200000
H      -46.26930000     -34.11110000     -76.82500000
C      -45.92560000     -30.56510000     -73.57980000
H      -46.46180000     -30.47470000     -72.63970000
H      -46.32950000     -29.74290000     -74.17790000
C      -48.50690000     -34.72410000     -72.76820000
H      -49.49090000     -34.26600000     -72.41880000
H      -48.78820000     -35.70450000     -73.16490000
S      -44.12270000     -30.58840000     -73.42040000
S      -47.49510000     -34.98960000     -71.13620000
C      -43.93130000     -31.56670000     -71.93950000
H      -42.93850000     -31.35660000     -71.54200000
H      -44.74890000     -31.26100000     -71.22670000
C      -47.83340000     -33.57370000     -70.01840000
H      -47.99000000     -34.01680000     -69.02890000
H      -48.73310000     -33.01320000     -70.30670000
C      -46.62510000     -32.59180000     -69.79650000
H      -46.18880000     -32.44470000     -70.82420000
H      -47.08570000     -31.74430000     -69.30270000
C      -44.06600000     -33.02190000     -72.09070000
H      -43.32350000     -33.41710000     -72.81010000
H      -45.05160000     -33.28990000     -72.48130000
C      -43.66740000     -33.73510000     -70.79540000
C      -42.47180000     -34.38030000     -70.72200000
C      -44.40780000     -33.93200000     -69.52230000
H      -41.77880000     -34.51730000     -71.50520000
C      -43.57110000     -34.60530000     -68.58420000
C      -45.52330000     -33.19530000     -68.94310000
C      -45.47700000     -33.27070000     -67.59060000
S      -42.05570000     -35.14100000     -69.18000000
S      -44.06230000     -34.26820000     -66.99320000
H      -46.15670000     -32.89120000     -66.87270000
