40
Properties=species:S:1:pos:R:3 #=T CELL(abcABC):=T 1.889726e+02=T 90.00000=T Traj:=T positionsangstrom=T Step:=T 0=T Bead:=T pbc="F F F"
C      -42.98910000     -35.97980000     -70.13550000
C      -43.42810000     -34.58970000     -69.91700000
C      -44.76730000     -34.37060000     -69.61670000
C      -45.63180000     -35.47940000     -69.42780000
C      -45.23540000     -36.80560000     -69.72610000
C      -43.91400000     -37.02780000     -70.16120000
H      -41.93900000     -36.19400000     -70.33350000
H      -45.21760000     -33.42210000     -69.43440000
H      -46.01020000     -37.61530000     -69.64670000
H      -43.66910000     -38.07860000     -70.35020000
C      -47.12500000     -35.34140000     -69.32970000
H      -47.38660000     -34.39450000     -69.00350000
H      -47.52960000     -36.10460000     -68.63920000
C      -42.50630000     -33.48020000     -70.15300000
H      -43.05830000     -32.49440000     -69.80370000
H      -41.65170000     -33.54560000     -69.48920000
S      -47.99810000     -35.75720000     -70.94380000
S      -41.88110000     -33.26040000     -71.88220000
C      -46.81090000     -35.39660000     -72.30630000
H      -45.83010000     -35.19680000     -71.79130000
H      -46.90240000     -36.26890000     -72.90780000
C      -43.07570000     -34.01250000     -73.01090000
H      -43.74930000     -34.58580000     -72.44870000
H      -42.53650000     -34.66140000     -73.64960000
C      -43.94670000     -32.93530000     -73.75650000
H      -43.26500000     -32.36370000     -74.38760000
H      -44.60480000     -33.47560000     -74.40930000
C      -47.20050000     -34.10240000     -73.07180000
H      -48.22380000     -34.22840000     -73.34810000
H      -46.58190000     -34.00910000     -73.95680000
C      -47.14480000     -32.79230000     -72.24050000
C      -48.18540000     -32.32540000     -71.49120000
C      -45.97170000     -31.93090000     -72.23930000
H      -49.03150000     -32.90160000     -71.15420000
C      -46.18100000     -30.76900000     -71.49910000
C      -44.58520000     -31.95330000     -72.81500000
C      -43.88370000     -30.85110000     -72.43630000
S      -47.78620000     -30.75590000     -70.77320000
S      -44.83830000     -29.67490000     -71.48430000
H      -42.88410000     -30.57630000     -72.76620000
