40
Properties=species:S:1:pos:R:3 #=T CELL(abcABC):=T 1.889726e+02=T 90.00000=T Traj:=T positionsangstrom=T Step:=T 0=T Bead:=T pbc="F F F"
C      -44.70990000     -35.15360000     -75.02320000
C      -45.76590000     -35.35710000     -74.12140000
C      -46.68000000     -34.31800000     -73.97460000
C      -46.59710000     -33.07780000     -74.65470000
C      -45.43230000     -32.90450000     -75.44920000
C      -44.50100000     -33.86600000     -75.58410000
H      -43.99890000     -35.93760000     -75.27990000
H      -47.56420000     -34.49130000     -73.38790000
H      -45.34670000     -31.95360000     -75.99060000
H      -43.66470000     -33.71170000     -76.23400000
C      -47.58380000     -32.01750000     -74.41390000
H      -48.54080000     -32.44700000     -74.08670000
H      -47.77110000     -31.52900000     -75.36910000
C      -46.14730000     -36.67760000     -73.53890000
H      -47.14340000     -36.68460000     -73.24340000
H      -46.07650000     -37.52030000     -74.16060000
S      -47.01630000     -30.65790000     -73.30170000
S      -45.23660000     -37.25990000     -71.91310000
C      -47.22370000     -31.26860000     -71.62820000
H      -47.10000000     -30.38300000     -70.98530000
H      -48.23330000     -31.71090000     -71.50180000
C      -44.65710000     -35.76630000     -71.02050000
H      -44.49640000     -34.82470000     -71.57550000
H      -43.65780000     -35.95890000     -70.61730000
C      -45.49860000     -35.36640000     -69.81460000
H      -46.45900000     -35.15080000     -70.12080000
H      -45.62950000     -36.26070000     -69.20480000
C      -46.12150000     -32.25510000     -71.25910000
H      -45.37620000     -32.43060000     -72.04120000
H      -46.58030000     -33.21490000     -71.12260000
C      -45.28050000     -31.83910000     -70.08930000
C      -44.89930000     -30.54880000     -69.77010000
C      -44.70520000     -32.87730000     -69.16750000
H      -45.18230000     -29.67280000     -70.31380000
C      -43.95150000     -32.26660000     -68.18140000
C      -44.84440000     -34.28700000     -68.94640000
C      -44.24730000     -34.71870000     -67.74100000
S      -43.88260000     -30.51430000     -68.33120000
S      -43.49000000     -33.43500000     -66.92690000
H      -44.17490000     -35.73720000     -67.36600000
