40
Properties=species:S:1:pos:R:3 #=T CELL(abcABC):=T 1.889726e+02=T 90.00000=T Traj:=T positionsangstrom=T Step:=T 0=T Bead:=T pbc="F F F"
C      -43.50160000     -36.30480000     -69.44350000
C      -43.73290000     -34.98010000     -69.84600000
C      -45.04350000     -34.62340000     -70.20170000
C      -46.11540000     -35.61840000     -70.04610000
C      -45.79570000     -36.93540000     -69.69340000
C      -44.50640000     -37.29970000     -69.49330000
H      -42.60350000     -36.55850000     -69.03920000
H      -45.15670000     -33.61350000     -70.51800000
H      -46.70850000     -37.56640000     -69.65520000
H      -44.23290000     -38.28820000     -69.23740000
C      -47.56740000     -35.30160000     -70.25710000
H      -47.81120000     -34.27910000     -69.84390000
H      -48.13520000     -36.05200000     -69.73560000
C      -42.70130000     -33.99010000     -69.81830000
H      -43.02260000     -33.04180000     -69.37770000
H      -41.87740000     -34.25400000     -69.14490000
S      -48.19490000     -35.43370000     -72.06060000
S      -41.86560000     -33.82520000     -71.43210000
C      -46.67480000     -34.88290000     -73.04520000
H      -45.88910000     -34.97540000     -72.30930000
H      -46.40810000     -35.57260000     -73.88170000
C      -43.06030000     -34.08950000     -72.83970000
H      -43.84980000     -34.82650000     -72.70680000
H      -42.43840000     -34.50220000     -73.60020000
C      -43.56420000     -32.67890000     -73.40180000
H      -42.67700000     -32.16220000     -73.78470000
H      -44.29790000     -33.01060000     -74.22050000
C      -46.99240000     -33.47870000     -73.63770000
H      -48.05400000     -33.53590000     -74.05620000
H      -46.39380000     -33.27570000     -74.49520000
C      -46.89960000     -32.32270000     -72.58030000
C      -48.01820000     -31.83920000     -71.98540000
C      -45.69200000     -31.77210000     -72.06700000
H      -49.03350000     -32.14130000     -72.07170000
C      -45.89540000     -30.74410000     -71.17570000
C      -44.27680000     -31.83570000     -72.44710000
C      -43.49610000     -30.93160000     -71.72000000
S      -47.62380000     -30.54910000     -70.79540000
S      -44.43320000     -29.89140000     -70.59610000
H      -42.43240000     -30.60050000     -71.82690000
