40
Properties=species:S:1:pos:R:3 #=T CELL(abcABC):=T 1.889726e+02=T 90.00000=T Traj:=T positionsangstrom=T Step:=T 0=T Bead:=T pbc="F F F"
C      -47.02760000     -30.41530000     -72.99770000
C      -47.77000000     -31.63150000     -72.98020000
C      -47.33700000     -32.68700000     -73.80670000
C      -46.18170000     -32.58040000     -74.55310000
C      -45.38490000     -31.41800000     -74.43490000
C      -45.80370000     -30.27470000     -73.72770000
H      -47.40090000     -29.56890000     -72.44550000
H      -48.05160000     -33.57920000     -73.67830000
H      -44.46580000     -31.34550000     -75.01010000
H      -45.37090000     -29.29040000     -73.73160000
C      -45.72640000     -33.72620000     -75.34590000
H      -44.79910000     -33.52040000     -75.92920000
H      -46.42720000     -34.07150000     -76.09890000
C      -49.06890000     -31.74170000     -72.19730000
H      -49.32180000     -30.79040000     -71.70180000
H      -49.78320000     -32.00280000     -72.94240000
S      -45.55480000     -35.23110000     -74.20180000
S      -49.01520000     -32.94630000     -70.84490000
C      -44.33430000     -34.70900000     -72.94330000
H      -43.31900000     -34.59850000     -73.39290000
H      -44.60500000     -33.70340000     -72.61400000
C      -47.43440000     -32.46380000     -69.99580000
H      -47.58540000     -32.20870000     -68.95360000
H      -47.14570000     -31.50720000     -70.45190000
C      -46.33250000     -33.48670000     -70.25910000
H      -46.62260000     -34.49360000     -70.02130000
H      -46.22450000     -33.52420000     -71.41730000
C      -44.27750000     -35.67060000     -71.71090000
H      -43.85400000     -36.60770000     -72.07830000
H      -45.34410000     -35.92250000     -71.52460000
C      -43.46770000     -35.16540000     -70.53680000
C      -42.22790000     -35.66970000     -70.25450000
C      -43.86850000     -34.12810000     -69.61460000
H      -41.65910000     -36.35750000     -70.91960000
C      -42.95910000     -33.93680000     -68.62170000
C      -45.05590000     -33.30340000     -69.43700000
C      -44.91660000     -32.40150000     -68.48240000
S      -41.54880000     -34.94990000     -68.80240000
S      -43.36730000     -32.63930000     -67.59510000
H      -45.54270000     -31.58070000     -68.32030000
