40
Properties=species:S:1:pos:R:3 #=T CELL(abcABC):=T 1.889726e+02=T 90.00000=T Traj:=T positionsangstrom=T Step:=T 0=T Bead:=T pbc="F F F"
C      -47.09700000     -35.20370000     -74.12840000
C      -48.00230000     -34.51800000     -73.33200000
C      -47.93100000     -33.09220000     -73.24890000
C      -47.00030000     -32.37240000     -74.03700000
C      -46.15490000     -33.10580000     -74.84370000
C      -46.16730000     -34.50330000     -74.88780000
H      -47.08660000     -36.26090000     -74.05190000
H      -48.51960000     -32.52010000     -72.57000000
H      -45.39090000     -32.50600000     -75.32940000
H      -45.48410000     -35.01890000     -75.53580000
C      -46.86620000     -30.89900000     -74.05820000
H      -47.72400000     -30.47980000     -73.45870000
H      -47.05140000     -30.44910000     -75.11840000
C      -48.90960000     -35.37130000     -72.45070000
H      -49.82860000     -34.85380000     -72.16110000
H      -49.21850000     -36.31130000     -72.98350000
S      -45.27460000     -30.12660000     -73.45980000
S      -47.92720000     -35.94310000     -70.99830000
C      -44.87820000     -30.76920000     -71.81640000
H      -44.36740000     -29.92160000     -71.36210000
H      -45.68190000     -31.03020000     -71.08860000
C      -47.64090000     -34.40360000     -69.98290000
H      -47.72150000     -34.83290000     -69.03200000
H      -48.48500000     -33.74960000     -70.12000000
C      -46.32730000     -33.50460000     -70.23480000
H      -46.08230000     -33.63490000     -71.33110000
H      -46.54660000     -32.43940000     -70.18020000
C      -43.98270000     -31.97920000     -72.01570000
H      -43.22230000     -31.66410000     -72.68120000
H      -44.46930000     -32.76580000     -72.58640000
C      -43.23160000     -32.52630000     -70.83900000
C      -41.85850000     -32.49310000     -70.71920000
C      -43.83350000     -33.23090000     -69.74450000
H      -41.14010000     -32.07960000     -71.37020000
C      -42.83470000     -33.62990000     -68.78440000
C      -45.11960000     -33.78400000     -69.41700000
C      -45.09060000     -34.48320000     -68.23490000
S      -41.21250000     -33.26070000     -69.24520000
S      -43.46440000     -34.74350000     -67.49190000
H      -45.93460000     -34.86310000     -67.75950000
