40
Properties=species:S:1:pos:R:3 #=T CELL(abcABC):=T 1.889726e+02=T 90.00000=T Traj:=T positionsangstrom=T Step:=T 0=T Bead:=T pbc="F F F"
C      -43.56550000     -36.36970000     -69.69640000
C      -43.89650000     -35.00770000     -69.87170000
C      -45.26670000     -34.67730000     -69.78060000
C      -46.26470000     -35.72060000     -69.90710000
C      -45.90350000     -37.06670000     -69.81980000
C      -44.56450000     -37.34130000     -69.67110000
H      -42.49580000     -36.55700000     -69.73350000
H      -45.58990000     -33.63950000     -69.61180000
H      -46.61260000     -37.89900000     -69.84530000
H      -44.08110000     -38.31410000     -69.53340000
C      -47.60760000     -35.25010000     -70.36240000
H      -47.64620000     -34.23400000     -70.20480000
H      -48.54730000     -35.63370000     -69.83870000
C      -42.87020000     -33.87210000     -69.90550000
H      -43.36040000     -32.88240000     -69.68600000
H      -42.09290000     -34.02980000     -69.09990000
S      -47.96020000     -35.44750000     -72.15540000
S      -41.75590000     -33.94700000     -71.40390000
C      -46.52000000     -34.83310000     -73.14800000
H      -45.70490000     -34.78240000     -72.47720000
H      -46.28090000     -35.57930000     -73.90980000
C      -43.06900000     -34.14190000     -72.68080000
H      -43.93390000     -34.83450000     -72.34390000
H      -42.52060000     -34.63180000     -73.48350000
C      -43.58670000     -32.79180000     -73.23410000
H      -42.80460000     -32.25040000     -73.76440000
H      -44.35390000     -32.97140000     -73.93950000
C      -46.82460000     -33.42410000     -73.70990000
H      -47.81010000     -33.47880000     -74.20020000
H      -46.09670000     -33.07290000     -74.45850000
C      -46.86870000     -32.27950000     -72.67960000
C      -47.96110000     -31.67930000     -72.21270000
C      -45.67550000     -31.66470000     -72.04750000
H      -48.97810000     -31.80840000     -72.52070000
C      -45.94480000     -30.67100000     -71.11190000
C      -44.19280000     -31.85560000     -72.24460000
C      -43.51070000     -31.02330000     -71.36190000
S      -47.68300000     -30.40320000     -70.98690000
S      -44.50010000     -29.91170000     -70.41400000
H      -42.39340000     -30.84740000     -71.45840000
