40
Properties=species:S:1:pos:R:3 #=T CELL(abcABC):=T 1.889726e+02=T 90.00000=T Traj:=T positionsangstrom=T Step:=T 0=T Bead:=T pbc="F F F"
C      -47.11040000     -34.42690000     -74.59760000
C      -47.85170000     -34.08720000     -73.44200000
C      -47.73460000     -32.79310000     -72.99020000
C      -46.86110000     -31.87800000     -73.57740000
C      -46.02790000     -32.35120000     -74.62750000
C      -46.19980000     -33.59990000     -75.21830000
H      -47.24250000     -35.44110000     -75.02000000
H      -48.30070000     -32.35120000     -72.17410000
H      -45.20240000     -31.72650000     -75.10140000
H      -45.56660000     -33.83600000     -76.02760000
C      -46.85180000     -30.46630000     -73.18620000
H      -47.51670000     -30.35500000     -72.37490000
H      -47.31890000     -30.01010000     -74.04580000
C      -48.54770000     -35.27880000     -72.74810000
H      -49.53390000     -35.03410000     -72.31650000
H      -48.82620000     -36.00760000     -73.52020000
S      -45.21960000     -29.67930000     -72.77900000
S      -47.50110000     -35.91110000     -71.39400000
C      -44.53130000     -30.66080000     -71.32030000
H      -43.55260000     -30.27920000     -70.90150000
H      -45.17120000     -30.77800000     -70.43860000
C      -47.61180000     -34.58070000     -70.13600000
H      -47.82500000     -35.02960000     -69.17900000
H      -48.47900000     -34.02740000     -70.42310000
C      -46.58480000     -33.50240000     -70.04730000
H      -46.36860000     -33.24590000     -71.08760000
H      -47.06970000     -32.64840000     -69.53260000
C      -44.13220000     -32.01970000     -71.90540000
H      -43.45130000     -31.92670000     -72.78050000
H      -45.02220000     -32.56270000     -72.31660000
C      -43.39540000     -32.87630000     -70.91450000
C      -42.01790000     -32.93790000     -70.90950000
C      -43.95750000     -33.67460000     -69.84380000
H      -41.27470000     -32.45530000     -71.51710000
C      -43.02870000     -34.32100000     -69.07370000
C      -45.30120000     -33.93100000     -69.37340000
C      -45.31840000     -34.81140000     -68.30110000
S      -41.37930000     -33.91820000     -69.55360000
S      -43.72990000     -35.26440000     -67.74380000
H      -46.14000000     -35.35220000     -67.91560000
