40
Properties=species:S:1:pos:R:3 #=T CELL(abcABC):=T 1.889726e+02=T 90.00000=T Traj:=T positionsangstrom=T Step:=T 0=T Bead:=T pbc="F F F"
C      -44.12660000     -36.73240000     -69.32560000
C      -44.00320000     -35.33500000     -69.56340000
C      -45.04340000     -34.57940000     -70.00550000
C      -46.33000000     -35.18060000     -70.09740000
C      -46.48530000     -36.57820000     -69.91000000
C      -45.32850000     -37.34560000     -69.65140000
H      -43.28680000     -37.30920000     -68.86900000
H      -44.98280000     -33.52110000     -70.13200000
H      -47.49960000     -37.03710000     -69.91630000
H      -45.40130000     -38.37110000     -69.41290000
C      -47.49630000     -34.37390000     -70.58090000
H      -47.28450000     -33.27880000     -70.66800000
H      -48.26750000     -34.50510000     -69.76500000
C      -42.78060000     -34.52310000     -69.28550000
H      -42.94370000     -33.53980000     -68.91460000
H      -42.19620000     -35.04640000     -68.55010000
S      -48.23260000     -35.00230000     -72.18360000
S      -41.63770000     -34.03660000     -70.67840000
C      -46.69330000     -35.00700000     -73.21380000
H      -45.86780000     -35.08800000     -72.59150000
H      -46.65810000     -35.84960000     -73.88040000
C      -42.67530000     -34.11210000     -72.21040000
H      -43.63840000     -34.56090000     -72.05840000
H      -42.23420000     -34.77820000     -72.94190000
C      -42.98710000     -32.78530000     -72.82960000
H      -42.07080000     -32.16050000     -72.89710000
H      -43.47070000     -33.05860000     -73.82800000
C      -46.32650000     -33.66850000     -73.99410000
H      -47.04300000     -33.65780000     -74.83930000
H      -45.34430000     -33.80450000     -74.45330000
C      -46.43000000     -32.40320000     -73.08640000
C      -47.64270000     -31.88300000     -72.83060000
C      -45.45460000     -31.80030000     -72.27810000
H      -48.57430000     -32.13730000     -73.37400000
C      -45.94830000     -30.72250000     -71.44440000
C      -44.07540000     -31.92980000     -72.10810000
C      -43.58130000     -30.99690000     -71.17340000
S      -47.62110000     -30.52090000     -71.70880000
S      -44.72820000     -30.00640000     -70.40370000
H      -42.50590000     -30.88270000     -70.86230000
