40
Properties=species:S:1:pos:R:3 #=T CELL(abcABC):=T 1.889726e+02=T 90.00000=T Traj:=T positionsangstrom=T Step:=T 0=T Bead:=T pbc="F F F"
C      -44.04450000     -36.53660000     -69.35860000
C      -44.15680000     -35.14720000     -69.43380000
C      -45.37720000     -34.47780000     -69.71040000
C      -46.46990000     -35.28220000     -69.97710000
C      -46.37630000     -36.74560000     -69.78970000
C      -45.14430000     -37.37260000     -69.49540000
H      -43.10690000     -36.97000000     -69.30320000
H      -45.43190000     -33.40470000     -69.84260000
H      -47.26700000     -37.33200000     -70.07870000
H      -45.08200000     -38.45670000     -69.57600000
C      -47.74870000     -34.68890000     -70.49700000
H      -47.78390000     -33.62060000     -70.45530000
H      -48.64610000     -35.02320000     -70.02150000
C      -42.84470000     -34.46090000     -69.19540000
H      -42.93520000     -33.40270000     -68.84460000
H      -42.26960000     -35.02490000     -68.42580000
S      -48.21510000     -34.98070000     -72.31780000
S      -41.74220000     -34.24390000     -70.71550000
C      -46.55190000     -34.92630000     -73.12470000
H      -45.86020000     -35.26110000     -72.30770000
H      -46.51620000     -35.82150000     -73.85190000
C      -42.94650000     -34.20460000     -72.14320000
H      -44.00560000     -34.49420000     -71.88530000
H      -42.56610000     -34.96390000     -72.93330000
C      -43.07070000     -32.81550000     -72.75760000
H      -42.12880000     -32.29070000     -72.79870000
H      -43.34170000     -32.92250000     -73.78260000
C      -46.06820000     -33.70530000     -73.89210000
H      -46.59910000     -33.55520000     -74.80190000
H      -45.06650000     -33.86640000     -74.25780000
C      -46.31560000     -32.39510000     -73.13290000
C      -47.53290000     -31.83270000     -72.94960000
C      -45.39230000     -31.81360000     -72.23090000
H      -48.42810000     -32.07330000     -73.61570000
C      -45.89850000     -30.71990000     -71.52550000
C      -43.99840000     -31.93690000     -72.02600000
C      -43.45440000     -30.97260000     -71.20280000
S      -47.55060000     -30.43850000     -71.83940000
S      -44.71350000     -29.84350000     -70.53640000
H      -42.37200000     -31.07680000     -70.99960000
