40
Properties=species:S:1:pos:R:3 #=T CELL(abcABC):=T 1.889726e+02=T 90.00000=T Traj:=T positionsangstrom=T Step:=T 0=T Bead:=T pbc="F F F"
C      -44.31540000     -36.30700000     -68.71350000
C      -44.45170000     -34.98220000     -69.22320000
C      -45.55810000     -34.66320000     -69.98100000
C      -46.62940000     -35.59460000     -70.13700000
C      -46.53640000     -36.78850000     -69.48910000
C      -45.39920000     -37.23310000     -68.88410000
H      -43.41080000     -36.64220000     -68.22210000
H      -45.66490000     -33.66480000     -70.44230000
H      -47.32780000     -37.54390000     -69.52460000
H      -45.34130000     -38.23920000     -68.51700000
C      -47.79650000     -35.04350000     -70.91660000
H      -47.67180000     -33.97510000     -70.87450000
H      -48.73210000     -35.48820000     -70.50170000
C      -43.33240000     -33.93930000     -69.00190000
H      -43.73980000     -32.92740000     -68.84290000
H      -42.63450000     -34.18110000     -68.14440000
S      -48.10580000     -35.45710000     -72.68430000
S      -42.07160000     -33.77240000     -70.35810000
C      -46.37110000     -35.14650000     -73.27440000
H      -45.70430000     -35.23350000     -72.46990000
H      -46.12900000     -35.93900000     -73.95360000
C      -42.80370000     -34.10780000     -72.02780000
H      -43.78250000     -34.43070000     -71.77500000
H      -42.24830000     -34.86310000     -72.47740000
C      -42.77180000     -32.82870000     -72.95030000
H      -41.70090000     -32.57390000     -73.04340000
H      -43.13600000     -33.07940000     -74.00360000
C      -46.12750000     -33.70850000     -73.87050000
H      -46.87220000     -33.63710000     -74.72640000
H      -45.11510000     -33.78110000     -74.21000000
C      -46.26300000     -32.49460000     -72.97480000
C      -47.52230000     -32.06310000     -72.72180000
C      -45.16650000     -31.73720000     -72.36660000
H      -48.40740000     -32.43520000     -73.15510000
C      -45.69360000     -30.69130000     -71.59380000
C      -43.70680000     -31.78160000     -72.30880000
C      -43.16990000     -30.73910000     -71.61300000
S      -47.49110000     -30.62570000     -71.63390000
S      -44.45610000     -29.72560000     -70.93560000
H      -42.20700000     -30.76100000     -71.15430000
