40
Properties=species:S:1:pos:R:3 #=T CELL(abcABC):=T 1.889726e+02=T 90.00000=T Traj:=T positionsangstrom=T Step:=T 0=T Bead:=T pbc="F F F"
C      -44.48320000     -35.65760000     -68.12290000
C      -44.52940000     -34.49730000     -68.92470000
C      -45.54330000     -34.35500000     -69.83280000
C      -46.49630000     -35.37770000     -70.05320000
C      -46.33840000     -36.55940000     -69.31420000
C      -45.41160000     -36.69800000     -68.28210000
H      -43.81450000     -35.85450000     -67.19740000
H      -45.62300000     -33.43410000     -70.36220000
H      -47.18490000     -37.30580000     -69.39540000
H      -45.36250000     -37.54920000     -67.64680000
C      -47.67960000     -35.18700000     -70.93110000
H      -47.81150000     -34.14610000     -71.22130000
H      -48.52960000     -35.51090000     -70.43610000
C      -43.60850000     -33.36540000     -68.58510000
H      -44.07150000     -32.40710000     -68.66650000
H      -43.15160000     -33.49920000     -67.60620000
S      -47.50000000     -36.14220000     -72.53710000
S      -42.18760000     -33.50680000     -69.78630000
C      -45.80900000     -35.53000000     -73.09310000
H      -45.03430000     -35.50370000     -72.31710000
H      -45.52760000     -36.25680000     -73.83190000
C      -42.79190000     -34.13380000     -71.41010000
H      -43.83020000     -34.52510000     -71.38930000
H      -42.16800000     -34.87570000     -71.75020000
C      -42.84900000     -33.04930000     -72.46790000
H      -41.80590000     -32.59250000     -72.50880000
H      -43.01900000     -33.50220000     -73.46650000
C      -45.99170000     -34.17990000     -73.87190000
H      -46.90580000     -34.30300000     -74.49120000
H      -45.11890000     -34.01810000     -74.49320000
C      -46.22250000     -32.84510000     -73.21300000
C      -47.40760000     -32.22770000     -73.41600000
C      -45.30750000     -31.95190000     -72.49820000
H      -48.24810000     -32.67310000     -73.94750000
C      -45.89300000     -30.77460000     -72.20750000
C      -43.88170000     -31.92580000     -72.21620000
C      -43.50530000     -30.75560000     -71.64610000
S      -47.53940000     -30.61330000     -72.63470000
S      -44.85340000     -29.63850000     -71.51680000
H      -42.42720000     -30.53950000     -71.23570000
