40
Properties=species:S:1:pos:R:3 #=T CELL(abcABC):=T 1.889726e+02=T 90.00000=T Traj:=T positionsangstrom=T Step:=T 0=T Bead:=T pbc="F F F"
C      -44.47530000     -36.04960000     -68.54320000
C      -44.54550000     -34.80780000     -69.20610000
C      -45.62350000     -34.54450000     -70.05270000
C      -46.60950000     -35.48790000     -70.21520000
C      -46.58560000     -36.70470000     -69.55560000
C      -45.46120000     -37.01160000     -68.79050000
H      -43.64320000     -36.39740000     -67.89380000
H      -45.71450000     -33.59380000     -70.56280000
H      -47.36470000     -37.43470000     -69.56830000
H      -45.24470000     -38.00580000     -68.34400000
C      -47.88140000     -35.17210000     -70.91910000
H      -48.24300000     -34.12650000     -70.84350000
H      -48.67240000     -35.77440000     -70.46020000
C      -43.39410000     -33.77160000     -69.00960000
H      -43.85350000     -32.79810000     -68.99690000
H      -42.96320000     -33.92470000     -68.03920000
S      -47.83990000     -35.64170000     -72.72830000
S      -42.01050000     -33.67760000     -70.28750000
C      -46.25820000     -35.12160000     -73.47720000
H      -45.31810000     -35.34960000     -72.90490000
H      -46.19120000     -35.70050000     -74.44590000
C      -42.86180000     -34.10690000     -71.82570000
H      -43.84690000     -34.44950000     -71.54080000
H      -42.39370000     -35.07440000     -72.20230000
C      -42.94930000     -33.06180000     -72.94130000
H      -41.98450000     -32.75890000     -73.29420000
H      -43.51550000     -33.49670000     -73.77290000
C      -46.19160000     -33.65800000     -73.95870000
H      -46.94010000     -33.39370000     -74.71580000
H      -45.28640000     -33.54090000     -74.58290000
C      -46.30160000     -32.56470000     -72.95810000
C      -47.51910000     -32.08220000     -72.59160000
C      -45.17930000     -31.83990000     -72.40920000
H      -48.45020000     -32.46160000     -72.95000000
C      -45.70280000     -30.79480000     -71.62760000
C      -43.72500000     -31.88160000     -72.38680000
C      -43.18550000     -30.78830000     -71.78880000
S      -47.47700000     -30.68810000     -71.45800000
S      -44.42190000     -29.73290000     -71.04110000
H      -42.18630000     -30.81060000     -71.51020000
