40
Properties=species:S:1:pos:R:3 #=T CELL(abcABC):=T 1.889726e+02=T 90.00000=T Traj:=T positionsangstrom=T Step:=T 0=T Bead:=T pbc="F F F"
C      -48.00060000     -33.73270000     -74.09410000
C      -48.33980000     -33.56290000     -72.71310000
C      -47.98410000     -32.36700000     -72.13870000
C      -47.35320000     -31.31020000     -72.80170000
C      -47.05560000     -31.46660000     -74.18260000
C      -47.53960000     -32.67000000     -74.79420000
H      -48.28540000     -34.64420000     -74.56940000
H      -48.21460000     -32.26140000     -70.99800000
H      -46.55700000     -30.65680000     -74.65620000
H      -47.35220000     -32.85110000     -75.85500000
C      -47.05580000     -29.92550000     -72.22790000
H      -47.54960000     -29.81570000     -71.19850000
H      -47.44440000     -29.14750000     -72.91410000
C      -48.95590000     -34.75900000     -72.04740000
H      -49.71450000     -34.51160000     -71.35250000
H      -49.17990000     -35.53410000     -72.72800000
S      -45.24800000     -29.51050000     -72.01480000
S      -47.86350000     -35.80210000     -70.91990000
C      -44.56200000     -31.04650000     -71.15250000
H      -43.84080000     -30.57430000     -70.44870000
H      -45.35090000     -31.49140000     -70.59660000
C      -47.42080000     -34.72270000     -69.52050000
H      -47.28630000     -35.36770000     -68.58590000
H      -48.30820000     -34.07690000     -69.27290000
C      -46.16720000     -33.78470000     -69.77910000
H      -46.23320000     -33.42740000     -70.84490000
H      -46.19090000     -32.91360000     -69.10390000
C      -44.01380000     -32.08890000     -72.19060000
H      -43.46010000     -31.67690000     -73.02440000
H      -44.92700000     -32.44800000     -72.67920000
C      -43.24520000     -33.14340000     -71.52050000
C      -41.91940000     -33.26820000     -71.91250000
C      -43.61860000     -33.93130000     -70.39550000
H      -41.55660000     -32.81570000     -72.79210000
C      -42.53920000     -34.73980000     -70.03630000
C      -44.79080000     -34.40110000     -69.60530000
C      -44.49960000     -35.35040000     -68.67270000
S      -41.13200000     -34.49830000     -70.96110000
S      -42.75040000     -35.77720000     -68.70060000
H      -45.20750000     -35.87810000     -68.15620000
