40
Properties=species:S:1:pos:R:3 #=T CELL(abcABC):=T 1.889726e+02=T 90.00000=T Traj:=T positionsangstrom=T Step:=T 0=T Bead:=T pbc="F F F"
C      -44.66560000     -35.60620000     -68.14980000
C      -44.85310000     -34.39700000     -68.78910000
C      -45.78700000     -34.30570000     -69.89260000
C      -46.59370000     -35.33430000     -70.21820000
C      -46.40990000     -36.58960000     -69.53480000
C      -45.50590000     -36.66440000     -68.47950000
H      -43.86580000     -35.74060000     -67.31560000
H      -46.00570000     -33.34660000     -70.38670000
H      -47.19300000     -37.29130000     -69.71670000
H      -45.51640000     -37.54000000     -67.82360000
C      -47.59170000     -35.26950000     -71.35130000
H      -47.74500000     -34.24280000     -71.68360000
H      -48.59110000     -35.67750000     -71.11830000
C      -44.04380000     -33.18750000     -68.50960000
H      -44.43060000     -32.27580000     -68.92770000
H      -43.86610000     -33.15960000     -67.42000000
S      -46.87700000     -36.10890000     -72.85170000
S      -42.37840000     -33.45040000     -69.21850000
C      -45.09360000     -35.47370000     -73.08720000
H      -44.67890000     -35.36780000     -72.07810000
H      -44.69980000     -36.32160000     -73.63900000
C      -42.70370000     -33.76800000     -70.97160000
H      -43.61720000     -34.34060000     -70.96930000
H      -41.89220000     -34.37370000     -71.29560000
C      -42.70050000     -32.49350000     -71.89010000
H      -41.81460000     -31.90090000     -71.72320000
H      -42.65940000     -32.82650000     -73.00520000
C      -45.01710000     -34.17470000     -73.98090000
H      -45.59920000     -34.49230000     -74.87930000
H      -43.89880000     -33.92900000     -74.23960000
C      -45.72410000     -32.96260000     -73.46980000
C      -47.03410000     -32.71120000     -73.79520000
C      -45.23290000     -31.96140000     -72.49290000
H      -47.68270000     -33.32340000     -74.47880000
C      -46.10500000     -30.90340000     -72.36760000
C      -43.96700000     -31.65680000     -71.78780000
C      -44.06400000     -30.50000000     -71.02700000
S      -47.56800000     -31.16620000     -73.23700000
S      -45.58620000     -29.66570000     -71.30060000
H      -43.23030000     -29.99060000     -70.49830000
