40
Properties=species:S:1:pos:R:3 #=T CELL(abcABC):=T 1.889726e+02=T 90.00000=T Traj:=T positionsangstrom=T Step:=T 0=T Bead:=T pbc="F F F"
C      -44.30870000     -35.32450000     -68.30270000
C      -44.64540000     -34.15720000     -68.97720000
C      -45.81450000     -34.12270000     -69.72740000
C      -46.64650000     -35.23060000     -69.93680000
C      -46.31540000     -36.36920000     -69.27200000
C      -45.17840000     -36.41100000     -68.46240000
H      -43.43670000     -35.27400000     -67.74170000
H      -46.02150000     -33.32590000     -70.47180000
H      -47.09310000     -37.15030000     -69.30600000
H      -44.96130000     -37.34800000     -67.90050000
C      -47.80850000     -35.14980000     -70.86830000
H      -48.13400000     -34.10040000     -70.87200000
H      -48.70590000     -35.69430000     -70.53100000
C      -43.78550000     -32.92420000     -68.84320000
H      -44.24740000     -32.02220000     -69.27450000
H      -43.56470000     -32.67750000     -67.74960000
S      -47.58750000     -35.78390000     -72.59190000
S      -42.01670000     -33.09910000     -69.63650000
C      -45.77170000     -35.67140000     -72.97440000
H      -45.20100000     -35.55650000     -72.04090000
H      -45.39540000     -36.59820000     -73.46000000
C      -42.36780000     -33.82600000     -71.31320000
H      -43.17260000     -34.57500000     -71.12280000
H      -41.50250000     -34.40810000     -71.61640000
C      -42.74330000     -32.92120000     -72.46290000
H      -41.85420000     -32.43800000     -72.78660000
H      -43.01400000     -33.66060000     -73.20930000
C      -45.46080000     -34.48210000     -73.91880000
H      -45.77750000     -34.73470000     -74.94320000
H      -44.41450000     -34.43350000     -73.87500000
C      -45.97270000     -33.11070000     -73.50160000
C      -47.29810000     -32.67380000     -73.62860000
C      -45.24000000     -32.18660000     -72.64580000
H      -48.01980000     -33.23960000     -74.11730000
C      -46.09750000     -31.19100000     -72.20620000
C      -43.85470000     -31.90850000     -72.23580000
C      -43.66920000     -30.83220000     -71.49010000
S      -47.65210000     -31.24430000     -72.80270000
S      -45.18510000     -30.01320000     -71.18610000
H      -42.81290000     -30.52480000     -71.01800000
