40
Properties=species:S:1:pos:R:3 #=T CELL(abcABC):=T 1.889726e+02=T 90.00000=T Traj:=T positionsangstrom=T Step:=T 0=T Bead:=T pbc="F F F"
C      -44.94970000     -35.67940000     -67.92080000
C      -45.08050000     -34.46550000     -68.63070000
C      -45.94770000     -34.38570000     -69.72820000
C      -46.65210000     -35.48580000     -70.17380000
C      -46.64430000     -36.64730000     -69.35780000
C      -45.71760000     -36.79050000     -68.37740000
H      -44.11990000     -35.91280000     -67.33640000
H      -46.11430000     -33.37160000     -70.07470000
H      -47.23570000     -37.55010000     -69.69410000
H      -45.65690000     -37.75640000     -67.93550000
C      -47.54370000     -35.38500000     -71.35270000
H      -47.80360000     -34.30790000     -71.48850000
H      -48.46290000     -35.96140000     -71.36800000
C      -44.31780000     -33.22430000     -68.23480000
H      -44.89040000     -32.42490000     -68.57380000
H      -44.07280000     -33.13080000     -67.18730000
S      -46.71970000     -35.99080000     -72.95800000
S      -42.64660000     -32.98010000     -68.98790000
C      -44.98360000     -35.38270000     -72.90050000
H      -44.70920000     -34.98280000     -71.87640000
H      -44.37600000     -36.21550000     -73.19690000
C      -42.72220000     -33.51810000     -70.69550000
H      -43.62770000     -34.07670000     -70.80730000
H      -41.82570000     -34.19900000     -70.81400000
C      -42.58270000     -32.45550000     -71.77510000
H      -41.85990000     -31.77870000     -71.33160000
H      -42.15240000     -32.87120000     -72.70910000
C      -44.66430000     -34.29550000     -73.98070000
H      -45.22180000     -34.67850000     -74.91440000
H      -43.63170000     -34.04650000     -74.01250000
C      -45.47310000     -33.03730000     -73.61440000
C      -46.79480000     -32.88370000     -73.94230000
C      -45.06450000     -31.95750000     -72.72380000
H      -47.40150000     -33.62270000     -74.43650000
C      -46.03190000     -30.93820000     -72.64840000
C      -43.85050000     -31.67610000     -72.00830000
C      -44.01900000     -30.54530000     -71.17940000
S      -47.55180000     -31.43070000     -73.37330000
S      -45.52810000     -29.66660000     -71.58410000
H      -43.28710000     -30.06390000     -70.59830000
