40
Properties=species:S:1:pos:R:3 #=T CELL(abcABC):=T 1.889726e+02=T 90.00000=T Traj:=T positionsangstrom=T Step:=T 0=T Bead:=T pbc="F F F"
C      -44.31250000     -35.44070000     -68.34800000
C      -44.61860000     -34.21000000     -68.97140000
C      -45.78090000     -34.19160000     -69.79620000
C      -46.71140000     -35.21780000     -69.87950000
C      -46.41920000     -36.38370000     -69.16310000
C      -45.12660000     -36.56080000     -68.55120000
H      -43.36530000     -35.48110000     -67.80020000
H      -45.98300000     -33.15720000     -70.24810000
H      -47.09890000     -37.23980000     -69.21680000
H      -44.94110000     -37.57690000     -68.11240000
C      -47.89690000     -35.10960000     -70.82180000
H      -48.12780000     -34.07590000     -70.94160000
H      -48.84700000     -35.65050000     -70.58300000
C      -43.71300000     -33.01670000     -68.88530000
H      -44.26900000     -32.15310000     -69.26360000
H      -43.46960000     -32.81040000     -67.88020000
S      -47.40410000     -35.84000000     -72.46210000
S      -42.09420000     -33.29810000     -69.74890000
C      -45.74280000     -35.30880000     -72.87800000
H      -45.23140000     -34.84270000     -72.00250000
H      -45.16780000     -36.17970000     -73.14790000
C      -42.56120000     -34.07330000     -71.32250000
H      -43.44620000     -34.66980000     -71.22060000
H      -41.75460000     -34.76020000     -71.61140000
C      -42.73500000     -33.03820000     -72.41330000
H      -41.82390000     -32.43050000     -72.45770000
H      -42.88950000     -33.43150000     -73.46530000
C      -45.66380000     -34.30300000     -74.08550000
H      -46.29710000     -34.59430000     -74.93240000
H      -44.56040000     -34.30690000     -74.43540000
C      -46.07580000     -33.03770000     -73.42910000
C      -47.40500000     -32.63340000     -73.56270000
C      -45.21800000     -32.15620000     -72.67600000
H      -48.11170000     -33.24050000     -74.11320000
C      -46.04090000     -31.07390000     -72.27960000
C      -43.88800000     -32.04630000     -72.06860000
C      -43.62910000     -30.86340000     -71.44970000
S      -47.63490000     -31.06280000     -72.73230000
S      -45.07440000     -29.89290000     -71.33320000
H      -42.71750000     -30.59720000     -70.93920000
