40
Properties=species:S:1:pos:R:3 #=T CELL(abcABC):=T 1.889726e+02=T 90.00000=T Traj:=T positionsangstrom=T Step:=T 0=T Bead:=T pbc="F F F"
C      -44.35240000     -35.31740000     -68.31240000
C      -44.59000000     -34.12140000     -69.01030000
C      -45.70520000     -34.05600000     -69.90490000
C      -46.50220000     -35.15730000     -70.20510000
C      -46.16870000     -36.35390000     -69.46200000
C      -45.24560000     -36.43410000     -68.44490000
H      -43.43090000     -35.27850000     -67.73710000
H      -46.11190000     -33.14240000     -70.21910000
H      -46.85940000     -37.21720000     -69.79380000
H      -45.10910000     -37.36900000     -67.93580000
C      -47.73710000     -34.96840000     -71.01800000
H      -47.91670000     -33.87360000     -71.12780000
H      -48.52640000     -35.41060000     -70.40770000
C      -43.69920000     -32.92880000     -68.75660000
H      -44.20840000     -32.08350000     -69.20230000
H      -43.40470000     -32.77540000     -67.74500000
S      -47.67890000     -35.90640000     -72.59490000
S      -42.06780000     -33.08660000     -69.61580000
C      -45.87060000     -35.79500000     -73.05780000
H      -45.33830000     -35.91280000     -72.14800000
H      -45.79550000     -36.68810000     -73.64530000
C      -42.45900000     -33.78340000     -71.32250000
H      -43.32980000     -34.50690000     -71.14730000
H      -41.60080000     -34.36800000     -71.59050000
C      -42.62960000     -32.71200000     -72.35150000
H      -41.67910000     -32.12290000     -72.43330000
H      -42.72760000     -33.08190000     -73.37160000
C      -45.43230000     -34.58310000     -73.87450000
H      -45.83210000     -34.78210000     -74.94130000
H      -44.37280000     -34.64670000     -74.09430000
C      -45.89140000     -33.21490000     -73.41370000
C      -47.23430000     -32.85970000     -73.64340000
C      -45.22060000     -32.16660000     -72.61800000
H      -47.91640000     -33.39800000     -74.28750000
C      -46.06860000     -31.15790000     -72.19630000
C      -43.85210000     -31.83650000     -72.07540000
C      -43.70230000     -30.78590000     -71.25060000
S      -47.66140000     -31.29240000     -72.83990000
S      -45.27300000     -29.97770000     -71.09070000
H      -42.90180000     -30.30590000     -70.83250000
