40
Properties=species:S:1:pos:R:3 #=T CELL(abcABC):=T 1.889726e+02=T 90.00000=T Traj:=T positionsangstrom=T Step:=T 0=T Bead:=T pbc="F F F"
C      -43.54440000     -34.12520000     -74.12110000
C      -44.76740000     -34.74320000     -74.41000000
C      -45.03760000     -35.86780000     -73.63100000
C      -44.20210000     -36.38640000     -72.66090000
C      -43.03430000     -35.63240000     -72.31960000
C      -42.73880000     -34.49060000     -73.07000000
H      -43.31830000     -33.25810000     -74.76630000
H      -45.97740000     -36.34890000     -73.91380000
H      -42.34390000     -35.92760000     -71.52160000
H      -41.84030000     -33.90210000     -72.82250000
C      -44.63280000     -37.61530000     -71.93720000
H      -43.78260000     -38.03050000     -71.38200000
H      -45.12300000     -38.35550000     -72.50790000
C      -45.85040000     -34.13080000     -75.29130000
H      -45.34260000     -33.44530000     -75.99390000
H      -46.35160000     -34.96960000     -75.92140000
S      -45.96900000     -37.09260000     -70.62280000
S      -47.10430000     -33.13570000     -74.45140000
C      -45.14180000     -35.69180000     -69.77570000
H      -45.12710000     -35.97860000     -68.74560000
H      -44.08400000     -35.55770000     -70.06610000
C      -46.23950000     -32.14880000     -73.06990000
H      -45.82590000     -31.18440000     -73.47980000
H      -45.36360000     -32.65440000     -72.71570000
C      -47.29800000     -31.85950000     -71.88180000
H      -48.05490000     -31.09490000     -72.24480000
H      -47.98910000     -32.62290000     -71.51560000
C      -45.92200000     -34.38720000     -69.91380000
H      -46.89450000     -34.74270000     -69.53850000
H      -46.04170000     -34.20660000     -70.99480000
C      -45.37720000     -33.11090000     -69.26930000
C      -44.62110000     -33.08720000     -68.11470000
C      -45.67430000     -31.77600000     -69.80790000
H      -44.26490000     -33.91480000     -67.47120000
C      -45.05100000     -30.81560000     -69.00320000
C      -46.51320000     -31.16560000     -70.80260000
C      -46.43780000     -29.80410000     -70.74390000
S      -44.03130000     -31.42240000     -67.76750000
S      -45.44310000     -29.18680000     -69.51220000
H      -46.89190000     -29.10710000     -71.42800000
