40
Properties=species:S:1:pos:R:3 #=T CELL(abcABC):=T 1.889726e+02=T 90.00000=T Traj:=T positionsangstrom=T Step:=T 0=T Bead:=T pbc="F F F"
C      -43.55580000     -34.38440000     -74.59670000
C      -44.87450000     -34.88470000     -74.42840000
C      -45.15550000     -35.90770000     -73.51070000
C      -44.16490000     -36.33200000     -72.60860000
C      -42.89660000     -35.88010000     -72.86270000
C      -42.53360000     -35.01560000     -73.88840000
H      -43.38550000     -33.72060000     -75.44060000
H      -46.19030000     -36.30180000     -73.39790000
H      -42.08430000     -36.13820000     -72.11030000
H      -41.49060000     -34.74430000     -73.96280000
C      -44.49690000     -37.29510000     -71.47400000
H      -43.59410000     -37.65450000     -70.96540000
H      -45.00650000     -38.22150000     -71.84620000
C      -45.99200000     -34.24840000     -75.21570000
H      -45.55660000     -33.47350000     -75.95830000
H      -46.56070000     -34.95380000     -75.78670000
S      -45.81400000     -36.95520000     -70.26250000
S      -47.31940000     -33.56280000     -74.18290000
C      -45.24190000     -35.44500000     -69.32070000
H      -45.52690000     -35.52010000     -68.25900000
H      -44.15070000     -35.30130000     -69.29680000
C      -46.41210000     -32.50880000     -72.98830000
H      -45.80920000     -31.78110000     -73.48310000
H      -45.61020000     -33.12450000     -72.51710000
C      -47.23030000     -31.97370000     -71.85670000
H      -48.22350000     -31.61100000     -72.27420000
H      -47.53060000     -32.95420000     -71.35770000
C      -45.95670000     -34.18060000     -69.85690000
H      -47.05070000     -34.17720000     -69.54740000
H      -45.97150000     -34.21710000     -71.00680000
C      -45.40500000     -32.88260000     -69.26250000
C      -44.50800000     -32.93930000     -68.22860000
C      -45.64790000     -31.58960000     -69.82500000
H      -44.05830000     -33.74980000     -67.67880000
C      -44.99920000     -30.59120000     -69.09640000
C      -46.46860000     -31.06500000     -70.92850000
C      -46.41670000     -29.72680000     -71.02120000
S      -44.12590000     -31.24240000     -67.74060000
S      -45.33710000     -29.02840000     -69.74900000
H      -46.78510000     -29.06580000     -71.80650000
