40
Properties=species:S:1:pos:R:3 #=T CELL(abcABC):=T 1.889726e+02=T 90.00000=T Traj:=T positionsangstrom=T Step:=T 0=T Bead:=T pbc="F F F"
C      -45.00100000     -35.49100000     -68.01840000
C      -45.25520000     -34.24330000     -68.66480000
C      -46.11170000     -34.12170000     -69.75890000
C      -46.62770000     -35.31720000     -70.25550000
C      -46.25280000     -36.53190000     -69.73470000
C      -45.50060000     -36.65430000     -68.54250000
H      -44.53360000     -35.47360000     -67.01040000
H      -46.12650000     -33.26580000     -70.31000000
H      -46.60430000     -37.54330000     -70.06300000
H      -45.25980000     -37.59030000     -68.05450000
C      -47.48060000     -35.28070000     -71.50590000
H      -47.70160000     -34.23650000     -71.56760000
H      -48.45400000     -35.78430000     -71.33100000
C      -44.44970000     -33.02780000     -68.22990000
H      -44.98350000     -32.12500000     -68.56050000
H      -44.34870000     -32.86770000     -67.12480000
S      -46.73710000     -36.14780000     -72.92550000
S      -42.68870000     -32.97500000     -68.93540000
C      -44.93440000     -35.56350000     -72.89330000
H      -44.68230000     -35.43720000     -71.86160000
H      -44.40520000     -36.49510000     -73.20620000
C      -42.80440000     -33.63170000     -70.65370000
H      -43.74810000     -34.19920000     -70.59160000
H      -42.07690000     -34.44380000     -70.70150000
C      -42.68600000     -32.65710000     -71.78470000
H      -41.78660000     -32.10650000     -71.58340000
H      -42.47470000     -33.13590000     -72.74320000
C      -44.64770000     -34.35980000     -73.80590000
H      -44.93640000     -34.72830000     -74.82090000
H      -43.57280000     -34.14860000     -73.82710000
C      -45.48730000     -33.11490000     -73.48410000
C      -46.70970000     -32.92020000     -73.99550000
C      -45.06820000     -32.05800000     -72.58900000
H      -47.08250000     -33.41360000     -74.90710000
C      -46.08830000     -31.13200000     -72.40220000
C      -43.87350000     -31.68210000     -71.92640000
C      -43.99280000     -30.39790000     -71.33400000
S      -47.48010000     -31.44900000     -73.41030000
S      -45.58060000     -29.71660000     -71.47920000
H      -43.20750000     -29.72990000     -70.97090000
