40
Properties=species:S:1:pos:R:3 #=T CELL(abcABC):=T 1.889726e+02=T 90.00000=T Traj:=T positionsangstrom=T Step:=T 0=T Bead:=T pbc="F F F"
C      -46.70230000     -30.27460000     -72.54150000
C      -47.57100000     -31.34090000     -72.89230000
C      -47.11870000     -32.31370000     -73.82390000
C      -45.85020000     -32.20140000     -74.38560000
C      -44.99170000     -31.15120000     -74.01850000
C      -45.46300000     -30.13080000     -73.11620000
H      -47.00770000     -29.62770000     -71.76930000
H      -47.72900000     -33.14820000     -74.17050000
H      -44.00610000     -30.99560000     -74.47990000
H      -44.71890000     -29.39950000     -72.81300000
C      -45.38730000     -33.29390000     -75.31530000
H      -44.45940000     -32.89940000     -75.82600000
H      -46.18350000     -33.56950000     -76.03460000
C      -48.96130000     -31.45390000     -72.20090000
H      -49.13220000     -30.51960000     -71.64450000
H      -49.64460000     -31.53120000     -73.03570000
S      -45.10650000     -34.91420000     -74.44060000
S      -49.16830000     -33.04330000     -71.18410000
C      -43.95930000     -34.50190000     -73.01490000
H      -42.91760000     -34.50450000     -73.35050000
H      -44.13940000     -33.50630000     -72.65160000
C      -47.74930000     -32.99200000     -69.99260000
H      -47.94880000     -33.51980000     -69.06670000
H      -47.57110000     -31.98980000     -69.64220000
C      -46.48170000     -33.63850000     -70.54150000
H      -46.75150000     -34.57850000     -70.95400000
H      -46.11320000     -32.99090000     -71.42400000
C      -44.14230000     -35.64660000     -71.99030000
H      -43.58930000     -36.41080000     -72.50450000
H      -45.22560000     -36.03380000     -72.01130000
C      -43.61930000     -35.35710000     -70.61390000
C      -42.36780000     -35.77550000     -70.22380000
C      -44.10350000     -34.32830000     -69.68890000
H      -41.71660000     -36.60020000     -70.55390000
C      -43.21430000     -34.04130000     -68.65810000
C      -45.35660000     -33.64500000     -69.54150000
C      -45.33010000     -32.80660000     -68.45270000
S      -41.77140000     -35.02500000     -68.73880000
S      -43.82140000     -32.99910000     -67.45600000
H      -46.12100000     -32.16510000     -67.93210000
