40
Properties=species:S:1:pos:R:3 #=T CELL(abcABC):=T 1.889726e+02=T 90.00000=T Traj:=T positionsangstrom=T Step:=T 0=T Bead:=T pbc="F F F"
C      -46.50550000     -34.56650000     -67.76570000
C      -45.94090000     -33.76340000     -68.77050000
C      -46.24470000     -33.99700000     -70.17190000
C      -47.11740000     -35.00820000     -70.57070000
C      -47.71080000     -35.80240000     -69.56350000
C      -47.42320000     -35.56770000     -68.19570000
H      -46.21420000     -34.34140000     -66.78100000
H      -45.92960000     -33.20750000     -70.87920000
H      -48.40710000     -36.59150000     -69.82980000
H      -47.78690000     -36.27400000     -67.45900000
C      -47.33440000     -35.12060000     -72.04200000
H      -47.05890000     -34.21010000     -72.51490000
H      -48.37510000     -35.29650000     -72.30250000
C      -45.16280000     -32.61870000     -68.43240000
H      -45.09000000     -31.83190000     -69.17130000
H      -45.42550000     -32.23490000     -67.43600000
S      -46.35280000     -36.45260000     -72.93330000
S      -43.33910000     -33.02110000     -68.35170000
C      -44.58660000     -35.95480000     -72.46220000
H      -44.63990000     -35.72870000     -71.36940000
H      -43.84410000     -36.78600000     -72.70850000
C      -42.90870000     -33.64550000     -70.06450000
H      -43.79320000     -34.22820000     -70.40060000
H      -42.09840000     -34.36460000     -69.79820000
C      -42.45140000     -32.53090000     -71.01040000
H      -41.73190000     -31.88810000     -70.46370000
H      -41.97450000     -33.01590000     -71.85870000
C      -43.83610000     -34.72110000     -73.24010000
H      -43.68630000     -34.97600000     -74.21670000
H      -42.84180000     -34.55110000     -72.86820000
C      -44.67280000     -33.47140000     -73.38060000
C      -45.65720000     -33.32880000     -74.35180000
C      -44.50730000     -32.22260000     -72.65650000
H      -45.83580000     -34.09290000     -75.06870000
C      -45.47600000     -31.31050000     -72.92450000
C      -43.66990000     -31.77740000     -71.45150000
C      -44.05640000     -30.56010000     -71.01620000
S      -46.51020000     -31.83020000     -74.22320000
S      -45.35410000     -29.91410000     -71.92740000
H      -43.55450000     -29.95040000     -70.28530000
