40
Properties=species:S:1:pos:R:3 #=T CELL(abcABC):=T 1.889726e+02=T 90.00000=T Traj:=T positionsangstrom=T Step:=T 0=T Bead:=T pbc="F F F"
C      -46.71880000     -34.50630000     -67.83980000
C      -46.11470000     -33.67940000     -68.81290000
C      -46.41130000     -33.75080000     -70.22510000
C      -47.19440000     -34.90120000     -70.59680000
C      -47.61690000     -35.83140000     -69.66630000
C      -47.54200000     -35.57790000     -68.29580000
H      -46.45170000     -34.25150000     -66.81890000
H      -45.89160000     -33.03010000     -70.84920000
H      -48.04920000     -36.75170000     -70.04920000
H      -48.09540000     -36.24240000     -67.58190000
C      -47.44670000     -35.12890000     -72.10100000
H      -47.41720000     -34.18140000     -72.64760000
H      -48.39990000     -35.60450000     -72.18960000
C      -45.18070000     -32.58690000     -68.26040000
H      -45.27620000     -31.69830000     -68.87830000
H      -45.46690000     -32.29570000     -67.25840000
S      -46.17340000     -36.25770000     -72.88640000
S      -43.38450000     -33.02280000     -68.12070000
C      -44.55230000     -35.81430000     -72.31860000
H      -44.73560000     -35.49180000     -71.30520000
H      -43.98660000     -36.79500000     -72.38000000
C      -42.94290000     -33.66570000     -69.77350000
H      -43.77420000     -34.33100000     -70.08770000
H      -42.04610000     -34.33120000     -69.70910000
C      -42.54580000     -32.70770000     -70.87140000
H      -41.79940000     -31.93420000     -70.50760000
H      -42.06040000     -33.29140000     -71.66470000
C      -43.93120000     -34.79750000     -73.25020000
H      -43.77880000     -35.38240000     -74.25280000
H      -42.91670000     -34.57700000     -72.81210000
C      -44.63410000     -33.54490000     -73.40710000
C      -45.61110000     -33.41430000     -74.38360000
C      -44.51130000     -32.37820000     -72.61970000
H      -45.91700000     -34.17650000     -75.10890000
C      -45.35590000     -31.36500000     -73.05820000
C      -43.66870000     -31.93940000     -71.55750000
C      -43.87870000     -30.63570000     -71.19800000
S      -46.45980000     -31.85040000     -74.31870000
S      -45.27680000     -29.96400000     -72.07750000
H      -43.45320000     -30.05320000     -70.36950000
