40
Properties=species:S:1:pos:R:3 #=T CELL(abcABC):=T 1.889726e+02=T 90.00000=T Traj:=T positionsangstrom=T Step:=T 0=T Bead:=T pbc="F F F"
C      -43.60340000     -34.94030000     -74.63900000
C      -44.92210000     -35.00700000     -74.19070000
C      -45.26720000     -35.78950000     -73.12630000
C      -44.25260000     -36.52140000     -72.51350000
C      -42.91100000     -36.48700000     -72.96780000
C      -42.51330000     -35.57240000     -73.98630000
H      -43.47740000     -34.49080000     -75.62160000
H      -46.21570000     -35.71690000     -72.67340000
H      -42.22230000     -37.03210000     -72.45910000
H      -41.45210000     -35.53480000     -74.38850000
C      -44.53560000     -37.50510000     -71.31190000
H      -43.60310000     -37.68750000     -70.80850000
H      -44.97620000     -38.40390000     -71.74730000
C      -45.98490000     -34.31070000     -75.07130000
H      -45.57780000     -33.47860000     -75.60580000
H      -46.51500000     -34.99200000     -75.78980000
S      -45.71850000     -36.90700000     -69.99400000
S      -47.37410000     -33.53230000     -74.07530000
C      -44.96060000     -35.23610000     -69.49700000
H      -44.80530000     -35.32350000     -68.40960000
H      -43.91350000     -35.29050000     -69.89500000
C      -46.50180000     -32.23180000     -73.18190000
H      -46.27290000     -31.32060000     -73.81740000
H      -45.51100000     -32.55020000     -72.83360000
C      -47.27930000     -31.91680000     -71.85270000
H      -48.23110000     -31.49000000     -72.21430000
H      -47.55060000     -32.93810000     -71.47480000
C      -45.85410000     -34.09770000     -69.87470000
H      -46.95390000     -34.15360000     -69.65890000
H      -45.71940000     -34.05140000     -70.99110000
C      -45.27130000     -32.80530000     -69.38170000
C      -44.30210000     -32.71780000     -68.41830000
C      -45.68490000     -31.52560000     -69.84890000
H      -43.81090000     -33.44660000     -67.78020000
C      -45.12670000     -30.44680000     -69.19100000
C      -46.55610000     -31.06120000     -70.91860000
C      -46.57660000     -29.68970000     -71.06220000
S      -44.00870000     -31.02410000     -67.95320000
S      -45.46080000     -28.93760000     -69.85060000
H      -47.11000000     -29.08660000     -71.73440000
