40
Properties=species:S:1:pos:R:3 #=T CELL(abcABC):=T 1.889726e+02=T 90.00000=T Traj:=T positionsangstrom=T Step:=T 0=T Bead:=T pbc="F F F"
C      -46.71720000     -34.60760000     -67.79330000
C      -46.16250000     -33.67880000     -68.73170000
C      -46.55690000     -33.77580000     -70.09070000
C      -47.26460000     -34.85320000     -70.57820000
C      -47.78150000     -35.82820000     -69.67900000
C      -47.41990000     -35.73320000     -68.31890000
H      -46.54140000     -34.37990000     -66.74050000
H      -46.25200000     -32.95050000     -70.73230000
H      -48.26860000     -36.67580000     -70.12260000
H      -47.76550000     -36.45450000     -67.60910000
C      -47.53220000     -35.06920000     -72.07840000
H      -47.42160000     -34.19060000     -72.65440000
H      -48.50480000     -35.45050000     -72.23190000
C      -45.41160000     -32.50460000     -68.21000000
H      -45.56820000     -31.67160000     -68.83830000
H      -45.78410000     -32.16960000     -67.22300000
S      -46.45110000     -36.33040000     -72.92810000
S      -43.52150000     -32.79200000     -68.02710000
C      -44.66800000     -35.86530000     -72.27670000
H      -44.77630000     -35.39160000     -71.27720000
H      -44.12650000     -36.81840000     -72.35690000
C      -43.16910000     -33.65720000     -69.59260000
H      -43.99280000     -34.38040000     -69.76900000
H      -42.37460000     -34.34380000     -69.23930000
C      -42.64370000     -32.93800000     -70.75470000
H      -41.81490000     -32.30910000     -70.46140000
H      -42.26040000     -33.63670000     -71.53840000
C      -43.86960000     -34.89130000     -73.26090000
H      -43.61560000     -35.34120000     -74.16740000
H      -42.92230000     -34.83430000     -72.74930000
C      -44.57400000     -33.58010000     -73.46770000
C      -45.48160000     -33.39160000     -74.52260000
C      -44.32470000     -32.35180000     -72.69440000
H      -45.80620000     -34.03500000     -75.38340000
C      -45.26090000     -31.38140000     -73.06750000
C      -43.68740000     -32.01100000     -71.43510000
C      -43.97210000     -30.74070000     -70.97510000
S      -45.97970000     -31.73790000     -74.66150000
S      -45.04430000     -29.97630000     -72.08780000
H      -43.57160000     -30.05170000     -70.23420000
