40
Properties=species:S:1:pos:R:3 #=T CELL(abcABC):=T 1.889726e+02=T 90.00000=T Traj:=T positionsangstrom=T Step:=T 0=T Bead:=T pbc="F F F"
C      -46.61560000     -34.75840000     -67.91760000
C      -46.32690000     -33.59780000     -68.72960000
C      -46.73560000     -33.65830000     -70.08540000
C      -47.29080000     -34.77150000     -70.66780000
C      -47.53070000     -35.93460000     -69.93240000
C      -47.29950000     -35.91160000     -68.55270000
H      -46.26920000     -34.92110000     -66.88230000
H      -46.69590000     -32.73570000     -70.66750000
H      -47.92210000     -36.91930000     -70.42750000
H      -47.38220000     -36.83370000     -67.90930000
C      -47.51240000     -34.83130000     -72.20680000
H      -47.33240000     -33.88420000     -72.63330000
H      -48.50380000     -35.14950000     -72.43720000
C      -45.63600000     -32.44690000     -68.12800000
H      -45.65930000     -31.56720000     -68.81500000
H      -46.07640000     -32.19250000     -67.21450000
S      -46.48520000     -36.13980000     -73.07060000
S      -43.80380000     -32.77080000     -67.88160000
C      -44.83270000     -35.85290000     -72.38230000
H      -44.94620000     -35.30430000     -71.43440000
H      -44.47370000     -36.84870000     -72.18770000
C      -43.41590000     -33.83800000     -69.29740000
H      -44.28490000     -34.40280000     -69.52810000
H      -42.63410000     -34.56080000     -68.98360000
C      -42.81670000     -33.13130000     -70.53820000
H      -41.87600000     -32.58250000     -70.33520000
H      -42.49710000     -33.97140000     -71.16390000
C      -43.95180000     -35.00060000     -73.32210000
H      -43.78830000     -35.51670000     -74.30340000
H      -43.05010000     -34.88050000     -72.81480000
C      -44.43550000     -33.58140000     -73.55560000
C      -45.19080000     -33.24740000     -74.66860000
C      -44.30750000     -32.49860000     -72.63730000
H      -45.39590000     -33.97470000     -75.37830000
C      -45.00970000     -31.34700000     -73.08720000
C      -43.65280000     -32.17960000     -71.37310000
C      -43.74620000     -30.89050000     -70.92300000
S      -45.85000000     -31.64170000     -74.64830000
S      -44.89700000     -29.99630000     -71.93610000
H      -43.59850000     -30.62750000     -69.86060000
