40
Properties=species:S:1:pos:R:3 #=T CELL(abcABC):=T 1.889726e+02=T 90.00000=T Traj:=T positionsangstrom=T Step:=T 0=T Bead:=T pbc="F F F"
C      -46.61290000     -30.46590000     -72.28170000
C      -47.49600000     -31.38720000     -72.87940000
C      -47.05110000     -32.25340000     -73.92290000
C      -45.78480000     -32.18690000     -74.39880000
C      -44.94120000     -31.14040000     -73.92280000
C      -45.33600000     -30.32010000     -72.87270000
H      -46.85280000     -29.86750000     -71.41910000
H      -47.64440000     -33.13260000     -74.39130000
H      -44.03570000     -30.96730000     -74.46970000
H      -44.60860000     -29.54750000     -72.51470000
C      -45.26970000     -33.18090000     -75.36760000
H      -44.30700000     -32.79550000     -75.74360000
H      -45.92720000     -33.28420000     -76.20180000
C      -48.89690000     -31.48690000     -72.23380000
H      -49.15360000     -30.68310000     -71.52420000
H      -49.78810000     -31.52290000     -72.86940000
S      -45.26490000     -34.82580000     -74.46320000
S      -49.19360000     -33.07390000     -71.31090000
C      -44.07300000     -34.40100000     -73.07830000
H      -43.09640000     -34.18990000     -73.47470000
H      -44.43780000     -33.43820000     -72.56100000
C      -47.81170000     -32.95820000     -70.09830000
H      -48.13650000     -33.41630000     -69.13300000
H      -47.60120000     -31.88810000     -69.98410000
C      -46.52680000     -33.74370000     -70.55520000
H      -46.80720000     -34.79280000     -70.69090000
H      -46.15750000     -33.39440000     -71.55780000
C      -44.07180000     -35.56740000     -72.02270000
H      -43.61490000     -36.51960000     -72.24800000
H      -45.08600000     -35.80210000     -71.86070000
C      -43.40940000     -35.15480000     -70.73470000
C      -42.19840000     -35.61570000     -70.29460000
C      -44.01240000     -34.26460000     -69.73560000
H      -41.52990000     -36.20880000     -70.84030000
C      -43.24310000     -34.07880000     -68.57190000
C      -45.32080000     -33.60200000     -69.65690000
C      -45.37870000     -32.91080000     -68.49150000
S      -41.80450000     -35.16230000     -68.57260000
S      -43.95360000     -32.98920000     -67.44350000
H      -46.22500000     -32.40560000     -68.03550000
