40
Properties=species:S:1:pos:R:3 #=T CELL(abcABC):=T 1.889726e+02=T 90.00000=T Traj:=T positionsangstrom=T Step:=T 0=T Bead:=T pbc="F F F"
C      -47.50840000     -35.28320000     -68.57600000
C      -46.78660000     -34.29090000     -69.18920000
C      -46.62150000     -34.22260000     -70.62100000
C      -47.23360000     -35.24150000     -71.38190000
C      -48.09820000     -36.19780000     -70.73330000
C      -48.20630000     -36.28330000     -69.33630000
H      -47.63780000     -35.15050000     -67.46210000
H      -45.99620000     -33.50030000     -71.03650000
H      -48.55750000     -37.01960000     -71.25410000
H      -48.67620000     -37.13580000     -68.89810000
C      -47.21980000     -35.19220000     -72.87050000
H      -47.23220000     -34.16610000     -73.23200000
H      -48.08040000     -35.57760000     -73.29450000
C      -46.00380000     -33.28260000     -68.30420000
H      -45.84040000     -32.34580000     -68.76150000
H      -46.54850000     -33.15880000     -67.30590000
S      -45.78930000     -35.98210000     -73.70780000
S      -44.28280000     -33.90160000     -67.78100000
C      -44.42230000     -35.51970000     -72.64030000
H      -44.74530000     -35.24110000     -71.67020000
H      -43.69820000     -36.41690000     -72.60320000
C      -43.42130000     -34.15000000     -69.48800000
H      -44.15480000     -34.62840000     -70.09230000
H      -42.68810000     -34.89190000     -69.27780000
C      -42.67320000     -32.94090000     -70.12490000
H      -42.09730000     -32.53950000     -69.33250000
H      -42.03920000     -33.33070000     -70.87390000
C      -43.60270000     -34.31930000     -73.25010000
H      -43.22410000     -34.61560000     -74.24140000
H      -42.61440000     -34.25220000     -72.78440000
C      -44.24040000     -32.94750000     -73.20840000
C      -45.02940000     -32.55680000     -74.26870000
C      -44.25170000     -32.05860000     -72.07800000
H      -45.16850000     -33.24140000     -75.10290000
C      -44.96230000     -30.87050000     -72.45020000
C      -43.59750000     -31.89300000     -70.79100000
C      -43.74230000     -30.59240000     -70.30150000
S      -45.63750000     -30.92120000     -74.06710000
S      -44.82480000     -29.59110000     -71.26570000
H      -43.68380000     -30.16780000     -69.34270000
