40
Properties=species:S:1:pos:R:3 #=T CELL(abcABC):=T 1.889726e+02=T 90.00000=T Traj:=T positionsangstrom=T Step:=T 0=T Bead:=T pbc="F F F"
C      -47.05840000     -34.88570000     -68.45580000
C      -46.52680000     -33.82760000     -69.24290000
C      -46.65380000     -33.86070000     -70.61850000
C      -47.33960000     -34.96860000     -71.22980000
C      -47.77700000     -36.01450000     -70.45320000
C      -47.68170000     -35.98210000     -69.05510000
H      -46.76260000     -35.01150000     -67.39120000
H      -46.43390000     -33.05510000     -71.24210000
H      -48.36650000     -36.88740000     -70.91040000
H      -47.94870000     -36.85500000     -68.46600000
C      -47.50740000     -35.02200000     -72.73220000
H      -47.44300000     -34.01010000     -73.10190000
H      -48.45070000     -35.44070000     -72.95450000
C      -45.87100000     -32.62260000     -68.60930000
H      -45.90700000     -31.79440000     -69.28920000
H      -46.39790000     -32.50570000     -67.62670000
S      -46.13650000     -36.13020000     -73.50650000
S      -44.25030000     -33.27440000     -67.95600000
C      -44.58090000     -35.88540000     -72.56920000
H      -44.90800000     -35.70180000     -71.57260000
H      -44.07790000     -36.87410000     -72.55060000
C      -43.24840000     -34.00790000     -69.33500000
H      -43.97500000     -34.55940000     -69.96940000
H      -42.55620000     -34.68160000     -68.80190000
C      -42.53900000     -32.92750000     -70.11830000
H      -41.87660000     -32.36300000     -69.43750000
H      -41.79700000     -33.39930000     -70.81340000
C      -43.73220000     -34.80610000     -73.14290000
H      -43.61780000     -35.11430000     -74.14820000
H      -42.79650000     -34.79350000     -72.61280000
C      -44.35820000     -33.40730000     -73.07790000
C      -45.17970000     -33.02700000     -74.16660000
C      -44.18360000     -32.31460000     -72.17180000
H      -45.32800000     -33.42760000     -75.13030000
C      -44.90850000     -31.18240000     -72.59500000
C      -43.54100000     -32.04150000     -70.91280000
C      -43.77900000     -30.69690000     -70.47580000
S      -45.73430000     -31.32000000     -74.09900000
S      -44.86540000     -29.83060000     -71.53550000
H      -43.41700000     -30.15730000     -69.54440000
