40
Properties=species:S:1:pos:R:3 #=T CELL(abcABC):=T 1.889726e+02=T 90.00000=T Traj:=T positionsangstrom=T Step:=T 0=T Bead:=T pbc="F F F"
C      -47.35680000     -35.52220000     -68.71390000
C      -46.81550000     -34.29030000     -69.29170000
C      -46.78270000     -34.14280000     -70.68340000
C      -47.22620000     -35.19110000     -71.53900000
C      -47.87700000     -36.30160000     -70.98750000
C      -47.84890000     -36.50650000     -69.56000000
H      -47.49050000     -35.61950000     -67.66520000
H      -46.30030000     -33.23590000     -71.17560000
H      -48.43790000     -36.97130000     -71.66390000
H      -48.51080000     -37.21550000     -69.03570000
C      -47.21130000     -35.06660000     -73.08450000
H      -47.40190000     -34.05810000     -73.31460000
H      -48.01580000     -35.64020000     -73.54910000
C      -46.11420000     -33.27320000     -68.35990000
H      -46.05380000     -32.35530000     -69.01540000
H      -46.63790000     -33.12360000     -67.47710000
S      -45.70570000     -35.79410000     -73.79740000
S      -44.40890000     -33.81010000     -67.82910000
C      -44.16620000     -35.46760000     -72.83370000
H      -44.51850000     -35.35800000     -71.74310000
H      -43.51470000     -36.31670000     -72.85060000
C      -43.61190000     -34.10260000     -69.39400000
H      -44.33860000     -34.36420000     -70.15060000
H      -43.00450000     -34.98070000     -69.28490000
C      -42.79450000     -32.94930000     -69.99490000
H      -42.05030000     -32.53070000     -69.29360000
H      -42.12540000     -33.33680000     -70.74270000
C      -43.33220000     -34.25710000     -73.26430000
H      -43.00330000     -34.46860000     -74.25700000
H      -42.48730000     -34.24760000     -72.54210000
C      -44.02660000     -32.87830000     -73.21230000
C      -44.74000000     -32.41850000     -74.32840000
C      -44.10740000     -31.97420000     -72.05060000
H      -44.92000000     -32.75900000     -75.34100000
C      -44.87520000     -30.88530000     -72.31920000
C      -43.65400000     -31.90600000     -70.66010000
C      -44.09220000     -30.82960000     -69.97600000
S      -45.61130000     -30.91010000     -73.93860000
S      -45.18500000     -29.84710000     -70.96870000
H      -43.66740000     -30.46800000     -68.99030000
