40
Properties=species:S:1:pos:R:3 #=T CELL(abcABC):=T 1.889726e+02=T 90.00000=T Traj:=T positionsangstrom=T Step:=T 0=T Bead:=T pbc="F F F"
C      -47.53250000     -35.52580000     -69.09810000
C      -47.18160000     -34.26280000     -69.58880000
C      -47.00290000     -34.11800000     -70.97250000
C      -47.14630000     -35.25990000     -71.81860000
C      -47.56550000     -36.55280000     -71.35960000
C      -47.77580000     -36.59870000     -69.95680000
H      -47.68440000     -35.63730000     -68.03340000
H      -46.77760000     -33.14310000     -71.40340000
H      -47.64440000     -37.44000000     -72.00300000
H      -48.23070000     -37.59220000     -69.52200000
C      -46.71540000     -35.24080000     -73.25020000
H      -46.61290000     -34.28370000     -73.72930000
H      -47.49440000     -35.74750000     -73.84910000
C      -46.94300000     -33.13720000     -68.69560000
H      -46.99110000     -32.19090000     -69.22900000
H      -47.74600000     -33.10360000     -67.96950000
S      -45.15010000     -36.14190000     -73.74280000
S      -45.39590000     -33.25100000     -67.63050000
C      -43.90760000     -35.56530000     -72.49190000
H      -44.26450000     -35.49410000     -71.47510000
H      -43.08820000     -36.29370000     -72.47280000
C      -44.10330000     -33.91690000     -68.74120000
H      -44.54210000     -34.76290000     -69.26760000
H      -43.42040000     -34.43780000     -68.04690000
C      -43.20920000     -32.87650000     -69.56240000
H      -42.80090000     -32.22190000     -68.73950000
H      -42.37240000     -33.45270000     -70.01840000
C      -43.05800000     -34.29910000     -72.91150000
H      -42.49420000     -34.37880000     -73.87240000
H      -42.30120000     -34.12680000     -72.12630000
C      -43.82100000     -33.00360000     -72.90440000
C      -44.23680000     -32.55080000     -74.14610000
C      -44.12270000     -32.06000000     -71.91600000
H      -44.20880000     -33.16530000     -75.03350000
C      -44.71160000     -30.85890000     -72.40350000
C      -43.88220000     -31.94160000     -70.52050000
C      -44.28570000     -30.75090000     -69.95900000
S      -45.18110000     -31.04520000     -74.07010000
S      -44.95860000     -29.68740000     -71.14800000
H      -44.19770000     -30.44490000     -68.94960000
