40
Properties=species:S:1:pos:R:3 #=T CELL(abcABC):=T 1.889726e+02=T 90.00000=T Traj:=T positionsangstrom=T Step:=T 0=T Bead:=T pbc="F F F"
C      -44.23630000     -35.23670000     -74.09100000
C      -45.35300000     -35.93430000     -73.66230000
C      -45.27790000     -36.70700000     -72.45330000
C      -44.12560000     -36.71650000     -71.62980000
C      -42.95860000     -36.08020000     -72.14740000
C      -42.99280000     -35.49540000     -73.39890000
H      -44.25370000     -34.54920000     -74.92370000
H      -46.18950000     -37.20520000     -72.10790000
H      -42.07280000     -35.93750000     -71.57170000
H      -42.08260000     -35.03570000     -73.87320000
C      -44.13940000     -37.23320000     -70.27230000
H      -43.10330000     -37.19540000     -69.96750000
H      -44.38590000     -38.29060000     -70.28370000
C      -46.68840000     -35.66370000     -74.25240000
H      -46.79100000     -35.12010000     -75.21940000
H      -47.22290000     -36.66680000     -74.47990000
S      -45.28730000     -36.43110000     -69.08620000
S      -47.69490000     -34.80680000     -72.97340000
C      -44.69510000     -34.69570000     -68.94050000
H      -44.88630000     -34.42730000     -67.82500000
H      -43.54620000     -34.55810000     -68.88720000
C      -46.84810000     -33.23430000     -72.94090000
H      -46.73060000     -32.87990000     -73.99360000
H      -45.79730000     -33.49980000     -72.75090000
C      -47.51930000     -32.24250000     -71.96450000
H      -48.36500000     -31.84590000     -72.52720000
H      -47.85400000     -32.81190000     -71.10140000
C      -45.23280000     -33.73060000     -70.02100000
H      -46.34430000     -33.77510000     -70.05780000
H      -44.95400000     -34.02700000     -71.02570000
C      -44.93300000     -32.26150000     -69.86960000
C      -43.79490000     -31.75890000     -69.23530000
C      -45.57800000     -31.18030000     -70.61570000
H      -43.11200000     -32.30050000     -68.60600000
C      -44.93130000     -29.95600000     -70.46080000
C      -46.65510000     -31.08030000     -71.52480000
C      -46.90710000     -29.77860000     -71.86910000
S      -43.60090000     -30.02680000     -69.34020000
S      -45.64760000     -28.63440000     -71.29900000
H      -47.67900000     -29.43870000     -72.50360000
