40
Properties=species:S:1:pos:R:3 #=T CELL(abcABC):=T 1.889726e+02=T 90.00000=T Traj:=T positionsangstrom=T Step:=T 0=T Bead:=T pbc="F F F"
C      -47.40550000     -35.63310000     -69.04750000
C      -46.96080000     -34.37020000     -69.52610000
C      -46.79190000     -34.12960000     -70.88450000
C      -46.98650000     -35.22420000     -71.75440000
C      -47.43860000     -36.50250000     -71.36810000
C      -47.59150000     -36.69200000     -69.95810000
H      -47.49990000     -35.92160000     -67.98820000
H      -46.42630000     -33.25080000     -71.32470000
H      -47.65330000     -37.17580000     -72.20120000
H      -47.84290000     -37.68460000     -69.56140000
C      -46.84740000     -34.98620000     -73.29690000
H      -46.69350000     -33.93540000     -73.46220000
H      -47.71590000     -35.26690000     -73.88610000
C      -46.72410000     -33.09560000     -68.69640000
H      -46.60700000     -32.18530000     -69.37680000
H      -47.58850000     -32.97330000     -68.03310000
S      -45.30370000     -35.87460000     -73.80980000
S      -45.23310000     -33.13120000     -67.69180000
C      -44.09010000     -35.50620000     -72.46370000
H      -44.62630000     -35.15890000     -71.59450000
H      -43.60870000     -36.53250000     -72.29270000
C      -43.96790000     -33.86240000     -68.77170000
H      -44.36260000     -34.64680000     -69.39810000
H      -43.29830000     -34.40020000     -68.06510000
C      -43.04430000     -32.94330000     -69.55320000
H      -42.38590000     -32.39710000     -68.86420000
H      -42.35920000     -33.60600000     -70.13110000
C      -43.14410000     -34.33270000     -73.00970000
H      -42.70420000     -34.55120000     -73.98760000
H      -42.32720000     -34.22960000     -72.26740000
C      -43.89740000     -33.07240000     -72.96480000
C      -44.51440000     -32.68120000     -74.12580000
C      -44.07980000     -32.10330000     -71.90330000
H      -44.37880000     -33.14280000     -75.05270000
C      -44.81190000     -30.98090000     -72.36220000
C      -43.77890000     -31.95840000     -70.50930000
C      -44.24940000     -30.80510000     -69.96620000
S      -45.32600000     -31.11880000     -74.01290000
S      -45.17510000     -29.87730000     -71.10540000
H      -44.03590000     -30.50140000     -68.95610000
