40
Properties=species:S:1:pos:R:3 #=T CELL(abcABC):=T 1.889726e+02=T 90.00000=T Traj:=T positionsangstrom=T Step:=T 0=T Bead:=T pbc="F F F"
C      -47.79240000     -35.39280000     -69.11180000
C      -47.25280000     -34.26180000     -69.71590000
C      -46.83870000     -34.19150000     -71.03620000
C      -47.05190000     -35.37270000     -71.80940000
C      -47.50980000     -36.61300000     -71.20540000
C      -47.87910000     -36.58810000     -69.85330000
H      -48.03760000     -35.28670000     -68.03700000
H      -46.40150000     -33.20000000     -71.42740000
H      -47.58890000     -37.52490000     -71.84070000
H      -48.17360000     -37.58130000     -69.36570000
C      -46.64370000     -35.25100000     -73.25820000
H      -46.59450000     -34.19170000     -73.50640000
H      -47.42040000     -35.75950000     -73.87430000
C      -47.04190000     -32.96200000     -68.86390000
H      -46.83600000     -32.08580000     -69.48680000
H      -47.80850000     -32.67240000     -68.13600000
S      -45.03400000     -36.17450000     -73.63810000
S      -45.55260000     -33.33670000     -67.77490000
C      -44.03660000     -35.60580000     -72.24280000
H      -44.69200000     -35.30410000     -71.47000000
H      -43.51450000     -36.48680000     -71.90810000
C      -44.35950000     -33.99070000     -69.07280000
H      -44.97650000     -34.27180000     -69.94340000
H      -43.80450000     -34.83960000     -68.60460000
C      -43.35450000     -32.86630000     -69.49840000
H      -43.07130000     -32.29080000     -68.63540000
H      -42.43930000     -33.34870000     -69.93410000
C      -43.14210000     -34.33940000     -72.70060000
H      -42.72090000     -34.58500000     -73.64210000
H      -42.36000000     -34.30190000     -71.98440000
C      -43.88910000     -33.07810000     -72.78140000
C      -44.21020000     -32.59850000     -74.03470000
C      -44.12080000     -32.03780000     -71.85610000
H      -44.19850000     -33.21790000     -74.94570000
C      -44.65640000     -30.87690000     -72.40720000
C      -43.87950000     -31.90080000     -70.43270000
C      -44.21860000     -30.63340000     -70.00280000
S      -44.85720000     -30.97020000     -74.08790000
S      -44.92650000     -29.64940000     -71.24580000
H      -44.20940000     -30.31400000     -68.98040000
