40
Properties=species:S:1:pos:R:3 #=T CELL(abcABC):=T 1.889726e+02=T 90.00000=T Traj:=T positionsangstrom=T Step:=T 0=T Bead:=T pbc="F F F"
C      -48.83990000     -34.19350000     -70.07860000
C      -47.72010000     -33.42550000     -70.40300000
C      -46.90920000     -33.78780000     -71.51370000
C      -47.11680000     -34.98010000     -72.18560000
C      -48.33770000     -35.62130000     -71.86590000
C      -49.18190000     -35.31570000     -70.82040000
H      -49.47590000     -33.82870000     -69.31390000
H      -46.07830000     -33.20740000     -71.84670000
H      -48.58750000     -36.54750000     -72.35770000
H      -50.00960000     -35.95340000     -70.48460000
C      -46.26690000     -35.43930000     -73.29360000
H      -45.94680000     -34.61170000     -73.90600000
H      -46.81860000     -36.08160000     -74.03790000
C      -47.42750000     -32.13600000     -69.61860000
H      -46.85410000     -31.45550000     -70.22880000
H      -48.41090000     -31.64240000     -69.52230000
S      -45.02320000     -36.73370000     -72.61550000
S      -46.67440000     -32.34710000     -68.00280000
C      -44.35000000     -35.99090000     -70.95230000
H      -45.16150000     -35.39290000     -70.49600000
H      -44.06440000     -36.79520000     -70.30750000
C      -45.21790000     -33.37590000     -68.46070000
H      -45.47470000     -34.13670000     -69.24620000
H      -44.89370000     -33.99020000     -67.62660000
C      -43.96940000     -32.56200000     -68.96710000
H      -43.76240000     -31.70550000     -68.28030000
H      -43.08490000     -33.14830000     -68.92440000
C      -43.13490000     -35.05250000     -71.19350000
H      -42.37760000     -35.73430000     -71.57560000
H      -42.67490000     -34.74280000     -70.23250000
C      -43.33290000     -33.81560000     -72.04880000
C      -43.05510000     -33.83020000     -73.39300000
C      -43.76530000     -32.44740000     -71.61040000
H      -42.59140000     -34.53710000     -74.03820000
C      -43.74950000     -31.52490000     -72.65620000
C      -44.04070000     -31.93900000     -70.36060000
C      -44.42950000     -30.60640000     -70.44750000
S      -43.13800000     -32.15710000     -74.13110000
S      -44.23630000     -29.95540000     -72.11990000
H      -44.52700000     -29.94190000     -69.56950000
