40
Properties=species:S:1:pos:R:3 #=T CELL(abcABC):=T 1.889726e+02=T 90.00000=T Traj:=T positionsangstrom=T Step:=T 0=T Bead:=T pbc="F F F"
C      -48.18640000     -35.11600000     -69.42440000
C      -47.53630000     -33.99950000     -69.91600000
C      -46.86550000     -34.12030000     -71.18260000
C      -47.00130000     -35.36070000     -71.97450000
C      -47.78860000     -36.39950000     -71.47540000
C      -48.33360000     -36.19710000     -70.20880000
H      -48.61920000     -35.00800000     -68.46280000
H      -46.32190000     -33.31280000     -71.69030000
H      -47.78370000     -37.32800000     -72.05520000
H      -48.90030000     -37.11120000     -69.76210000
C      -46.41130000     -35.39300000     -73.33930000
H      -46.25510000     -34.37740000     -73.57670000
H      -47.03680000     -35.83600000     -74.04320000
C      -47.46060000     -32.71840000     -69.18350000
H      -47.25370000     -31.92560000     -69.84380000
H      -48.39240000     -32.47620000     -68.71880000
S      -44.81540000     -36.24500000     -73.30340000
S      -46.06430000     -32.92630000     -67.86940000
C      -43.88830000     -35.58260000     -71.87720000
H      -44.58610000     -35.06470000     -71.30640000
H      -43.61150000     -36.41090000     -71.27020000
C      -44.61680000     -33.84170000     -68.73340000
H      -45.02620000     -34.28680000     -69.66610000
H      -44.32340000     -34.67290000     -68.08920000
C      -43.53180000     -32.80870000     -69.09860000
H      -43.39860000     -32.15010000     -68.20600000
H      -42.57780000     -33.36760000     -69.37240000
C      -42.76170000     -34.59760000     -72.36400000
H      -42.30120000     -35.03410000     -73.28960000
H      -41.94940000     -34.51570000     -71.61690000
C      -43.38740000     -33.23150000     -72.70340000
C      -43.66050000     -32.89330000     -73.99930000
C      -43.79430000     -32.21070000     -71.72870000
H      -43.35660000     -33.47810000     -74.83670000
C      -44.41130000     -31.15420000     -72.42550000
C      -43.99810000     -31.94140000     -70.27590000
C      -44.58960000     -30.73770000     -70.01740000
S      -44.22810000     -31.22010000     -74.17170000
S      -45.08090000     -29.84970000     -71.41550000
H      -44.80930000     -30.45960000     -68.96880000
