40
Properties=species:S:1:pos:R:3 #=T CELL(abcABC):=T 1.889726e+02=T 90.00000=T Traj:=T positionsangstrom=T Step:=T 0=T Bead:=T pbc="F F F"
C      -48.30880000     -35.02140000     -69.47960000
C      -47.66820000     -33.84100000     -69.94580000
C      -47.04100000     -33.89740000     -71.18490000
C      -46.95820000     -35.11400000     -71.97300000
C      -47.65650000     -36.24880000     -71.48880000
C      -48.31260000     -36.17220000     -70.23850000
H      -48.84380000     -35.02600000     -68.49310000
H      -46.51470000     -33.00220000     -71.60050000
H      -47.79970000     -37.09030000     -72.22380000
H      -48.79700000     -37.12750000     -69.88050000
C      -46.27920000     -35.21530000     -73.31630000
H      -45.87160000     -34.28670000     -73.76540000
H      -46.87460000     -35.70870000     -74.15970000
C      -47.36920000     -32.55850000     -69.13970000
H      -47.03560000     -31.70620000     -69.81170000
H      -48.27920000     -32.23450000     -68.58390000
S      -44.81050000     -36.39520000     -73.29840000
S      -46.14470000     -32.76620000     -67.68840000
C      -43.84450000     -35.73070000     -71.90790000
H      -44.49810000     -35.22550000     -71.14860000
H      -43.28160000     -36.64340000     -71.53460000
C      -44.83020000     -33.85690000     -68.48500000
H      -45.33120000     -34.59450000     -69.08170000
H      -44.35600000     -34.41630000     -67.66670000
C      -43.70590000     -33.06950000     -69.28610000
H      -43.13340000     -32.57450000     -68.52610000
H      -42.96990000     -33.71100000     -69.70710000
C      -42.74370000     -34.67820000     -72.22320000
H      -42.08750000     -34.99940000     -73.03160000
H      -42.14560000     -34.59080000     -71.30860000
C      -43.25430000     -33.25350000     -72.60610000
C      -43.29410000     -32.88780000     -73.93960000
C      -43.95880000     -32.26420000     -71.84960000
H      -42.86600000     -33.48920000     -74.76520000
C      -44.41780000     -31.15660000     -72.55810000
C      -44.10320000     -32.05640000     -70.38030000
C      -44.61960000     -30.84340000     -70.02940000
S      -44.15950000     -31.39170000     -74.28410000
S      -45.05620000     -29.84660000     -71.46560000
H      -44.69170000     -30.56230000     -68.99210000
