40
Properties=species:S:1:pos:R:3 #=T CELL(abcABC):=T 1.889726e+02=T 90.00000=T Traj:=T positionsangstrom=T Step:=T 0=T Bead:=T pbc="F F F"
C      -48.28130000     -34.83310000     -69.50710000
C      -47.68600000     -33.69130000     -70.01830000
C      -46.91760000     -33.80540000     -71.16330000
C      -46.97900000     -34.94690000     -71.94340000
C      -47.76520000     -36.09540000     -71.51850000
C      -48.29130000     -36.05600000     -70.21990000
H      -48.66660000     -34.94130000     -68.52640000
H      -46.26740000     -33.01210000     -71.58880000
H      -47.80510000     -37.05340000     -72.00060000
H      -48.74080000     -36.95590000     -69.87620000
C      -46.23190000     -34.99370000     -73.23180000
H      -45.94840000     -33.98570000     -73.54350000
H      -46.87240000     -35.31720000     -74.02930000
C      -47.55860000     -32.48550000     -69.08070000
H      -47.30580000     -31.59770000     -69.68850000
H      -48.49170000     -32.29570000     -68.55470000
S      -44.87530000     -36.24800000     -73.15620000
S      -46.27750000     -32.70140000     -67.76910000
C      -43.69390000     -35.77920000     -71.66720000
H      -44.23940000     -35.49490000     -70.76140000
H      -43.21940000     -36.71600000     -71.37980000
C      -44.99230000     -33.74470000     -68.49460000
H      -45.42000000     -34.52100000     -69.09780000
H      -44.56450000     -34.24890000     -67.58750000
C      -43.76240000     -33.05330000     -69.18810000
H      -43.20570000     -32.41190000     -68.42550000
H      -43.04040000     -33.86770000     -69.39640000
C      -42.69760000     -34.74720000     -72.13770000
H      -42.02850000     -35.14900000     -72.87160000
H      -42.08350000     -34.59020000     -71.22610000
C      -43.25600000     -33.44360000     -72.63270000
C      -43.36430000     -33.14150000     -73.98610000
C      -43.89580000     -32.45740000     -71.84070000
H      -42.83360000     -33.68400000     -74.79850000
C      -44.16520000     -31.30510000     -72.56020000
C      -44.11750000     -32.22880000     -70.42640000
C      -44.73610000     -30.99600000     -70.25220000
S      -43.98490000     -31.45350000     -74.22860000
S      -45.01250000     -30.03790000     -71.69550000
H      -44.98440000     -30.57490000     -69.27700000
