40
Properties=species:S:1:pos:R:3 #=T CELL(abcABC):=T 1.889726e+02=T 90.00000=T Traj:=T positionsangstrom=T Step:=T 0=T Bead:=T pbc="F F F"
C      -48.93700000     -34.25030000     -70.11530000
C      -47.78540000     -33.45960000     -70.35800000
C      -46.92360000     -33.82680000     -71.34330000
C      -47.15200000     -34.96250000     -72.14840000
C      -48.15930000     -35.81060000     -71.75740000
C      -49.08240000     -35.45590000     -70.77400000
H      -49.65400000     -33.98220000     -69.41460000
H      -46.05790000     -33.11740000     -71.44010000
H      -48.29100000     -36.67550000     -72.38010000
H      -49.93580000     -36.16250000     -70.67240000
C      -46.13140000     -35.25880000     -73.20220000
H      -45.62770000     -34.36020000     -73.53950000
H      -46.70450000     -35.58210000     -74.11880000
C      -47.52620000     -32.18980000     -69.53880000
H      -47.02310000     -31.44390000     -70.22400000
H      -48.46650000     -31.79750000     -69.13180000
S      -44.87120000     -36.55900000     -72.82980000
S      -46.61410000     -32.39800000     -67.95180000
C      -44.13080000     -35.93930000     -71.22500000
H      -44.97350000     -35.54570000     -70.59650000
H      -43.90570000     -36.85830000     -70.61330000
C      -45.06390000     -33.44030000     -68.38000000
H      -45.45450000     -34.11770000     -69.12760000
H      -44.86230000     -33.94670000     -67.45300000
C      -43.89150000     -32.62150000     -68.94140000
H      -43.51760000     -31.94730000     -68.18290000
H      -43.11450000     -33.39750000     -68.99980000
C      -42.85870000     -35.00600000     -71.42570000
H      -42.17900000     -35.44820000     -72.09310000
H      -42.40500000     -34.83890000     -70.42720000
C      -43.18880000     -33.76320000     -72.12110000
C      -43.03460000     -33.65500000     -73.47800000
C      -43.73530000     -32.47550000     -71.56600000
H      -42.76860000     -34.36630000     -74.28190000
C      -43.92180000     -31.55770000     -72.60610000
C      -43.97550000     -31.96850000     -70.28640000
C      -44.58280000     -30.73110000     -70.36390000
S      -43.44490000     -32.11560000     -74.20040000
S      -44.46180000     -29.98890000     -71.97070000
H      -44.77220000     -30.13990000     -69.48900000
