40
Properties=species:S:1:pos:R:3 #=T CELL(abcABC):=T 1.889726e+02=T 90.00000=T Traj:=T positionsangstrom=T Step:=T 0=T Bead:=T pbc="F F F"
C      -49.08110000     -33.79640000     -70.44170000
C      -47.99820000     -33.12090000     -71.03820000
C      -47.08060000     -33.76180000     -71.90390000
C      -47.24660000     -35.13840000     -72.19010000
C      -48.39920000     -35.81760000     -71.75310000
C      -49.23570000     -35.14440000     -70.85180000
H      -49.88780000     -33.32640000     -69.98300000
H      -46.34210000     -33.20000000     -72.45660000
H      -48.69420000     -36.84950000     -72.04220000
H      -50.23020000     -35.65430000     -70.59620000
C      -46.30700000     -35.72710000     -73.12450000
H      -45.79550000     -34.96250000     -73.69910000
H      -46.85510000     -36.41010000     -73.87810000
C      -47.66350000     -31.62330000     -70.70350000
H      -46.90150000     -31.46300000     -71.45440000
H      -48.56490000     -30.98690000     -70.75930000
S      -45.11510000     -36.85440000     -72.22780000
S      -46.97370000     -31.40660000     -69.01250000
C      -44.58890000     -36.04460000     -70.59950000
H      -45.53100000     -35.60550000     -70.17780000
H      -44.30640000     -36.94700000     -70.01690000
C      -45.79120000     -32.76080000     -68.76330000
H      -45.97940000     -33.61130000     -69.40810000
H      -46.09930000     -33.17850000     -67.77830000
C      -44.25920000     -32.38350000     -68.61600000
H      -44.14780000     -31.50040000     -67.95440000
H      -43.59020000     -33.12580000     -68.25150000
C      -43.30800000     -35.30010000     -70.65880000
H      -42.52900000     -35.91610000     -71.09840000
H      -42.95860000     -34.86930000     -69.67530000
C      -43.32090000     -34.06670000     -71.57160000
C      -43.07870000     -34.24960000     -72.90840000
C      -43.49830000     -32.65340000     -71.25280000
H      -42.74740000     -35.20070000     -73.34460000
C      -43.35420000     -31.90040000     -72.36100000
C      -43.84360000     -31.90610000     -70.02100000
C      -43.91210000     -30.59580000     -70.41460000
S      -42.94710000     -32.75120000     -73.81710000
S      -43.47740000     -30.22830000     -72.06270000
H      -44.03080000     -29.76690000     -69.73200000
