40
Properties=species:S:1:pos:R:3 #=T CELL(abcABC):=T 1.889726e+02=T 90.00000=T Traj:=T positionsangstrom=T Step:=T 0=T Bead:=T pbc="F F F"
C      -49.12490000     -33.60020000     -71.16420000
C      -47.93250000     -32.98550000     -71.52670000
C      -46.88910000     -33.74190000     -72.12510000
C      -47.00200000     -35.13550000     -72.17070000
C      -48.27750000     -35.67410000     -71.95680000
C      -49.35710000     -34.92210000     -71.46490000
H      -49.88280000     -32.94380000     -70.71820000
H      -45.97880000     -33.18810000     -72.44440000
H      -48.48010000     -36.74930000     -72.05480000
H      -50.39310000     -35.39040000     -71.36720000
C      -45.90210000     -35.97330000     -72.71080000
H      -45.25570000     -35.25950000     -73.25790000
H      -46.11890000     -36.76300000     -73.47470000
C      -47.79910000     -31.51800000     -71.17620000
H      -47.05640000     -30.95550000     -71.75140000
H      -48.74830000     -30.86490000     -71.30260000
S      -45.02190000     -36.92860000     -71.44620000
S      -47.34730000     -31.17050000     -69.41990000
C      -44.56480000     -35.89280000     -70.06360000
H      -45.41810000     -35.17420000     -69.97670000
H      -44.50900000     -36.68690000     -69.26410000
C      -46.14360000     -32.39490000     -68.83000000
H      -46.30630000     -33.34650000     -69.45110000
H      -46.51700000     -32.60610000     -67.82800000
C      -44.66450000     -32.10490000     -68.81360000
H      -44.43980000     -31.29530000     -68.15460000
H      -44.25750000     -33.01070000     -68.31580000
C      -43.20760000     -35.15740000     -70.16520000
H      -42.40170000     -35.91170000     -70.28670000
H      -43.04290000     -34.67090000     -69.14110000
C      -43.06170000     -34.18310000     -71.27160000
C      -42.56280000     -34.54090000     -72.48720000
C      -43.61730000     -32.80070000     -71.17520000
H      -42.11770000     -35.47370000     -72.92950000
C      -43.37950000     -32.16330000     -72.39620000
C      -44.00110000     -31.87220000     -70.17480000
C      -44.02110000     -30.57360000     -70.55710000
S      -42.70260000     -33.11250000     -73.62760000
S      -43.60540000     -30.39180000     -72.24980000
H      -44.51910000     -29.76020000     -69.98510000
