40
Properties=species:S:1:pos:R:3 #=T CELL(abcABC):=T 1.889726e+02=T 90.00000=T Traj:=T positionsangstrom=T Step:=T 0=T Bead:=T pbc="F F F"
C      -46.63400000     -30.50540000     -72.12350000
C      -47.43550000     -31.52330000     -72.65690000
C      -46.91130000     -32.26210000     -73.73710000
C      -45.58250000     -32.03920000     -74.21400000
C      -44.79350000     -31.03650000     -73.57610000
C      -45.29640000     -30.30710000     -72.51670000
H      -47.07490000     -29.91210000     -71.32080000
H      -47.61830000     -32.96020000     -74.30470000
H      -43.78320000     -30.84910000     -73.95470000
H      -44.63190000     -29.59930000     -71.99820000
C      -44.99240000     -32.99620000     -75.25220000
H      -43.95840000     -32.76450000     -75.59140000
H      -45.71740000     -32.93730000     -76.15470000
C      -48.89160000     -31.53230000     -72.22700000
H      -49.14220000     -30.62810000     -71.66730000
H      -49.62780000     -31.57960000     -73.03960000
S      -44.90050000     -34.75380000     -74.73140000
S      -49.26300000     -33.06980000     -71.26150000
C      -43.64110000     -34.58340000     -73.33320000
H      -42.59290000     -34.79100000     -73.60310000
H      -43.70480000     -33.48560000     -73.04890000
C      -47.87260000     -33.11390000     -70.04010000
H      -48.24010000     -33.42360000     -69.09250000
H      -47.67350000     -32.02770000     -69.95260000
C      -46.72200000     -33.99720000     -70.56200000
H      -47.11310000     -35.04220000     -70.64170000
H      -46.35110000     -33.74310000     -71.58760000
C      -44.06090000     -35.44780000     -72.20210000
H      -43.75640000     -36.49160000     -72.37130000
H      -45.17610000     -35.49770000     -72.07640000
C      -43.50460000     -35.05250000     -70.76930000
C      -42.21990000     -35.34220000     -70.44270000
C      -44.17670000     -34.29210000     -69.76270000
H      -41.45410000     -35.67300000     -71.15540000
C      -43.40470000     -34.09500000     -68.63650000
C      -45.54350000     -33.83720000     -69.59040000
C      -45.73700000     -33.25320000     -68.38860000
S      -41.79690000     -34.81730000     -68.80480000
S      -44.28650000     -33.21280000     -67.39750000
H      -46.60510000     -32.79900000     -68.04560000
