40
Properties=species:S:1:pos:R:3 #=T CELL(abcABC):=T 1.889726e+02=T 90.00000=T Traj:=T positionsangstrom=T Step:=T 0=T Bead:=T pbc="F F F"
C      -48.41800000     -35.61830000     -72.81380000
C      -47.44340000     -34.95200000     -73.56620000
C      -46.08930000     -35.39870000     -73.40710000
C      -45.75270000     -36.37770000     -72.44540000
C      -46.77840000     -37.07890000     -71.77060000
C      -48.07960000     -36.73720000     -71.98840000
H      -49.48510000     -35.32780000     -72.88650000
H      -45.35850000     -35.00760000     -74.13070000
H      -46.53260000     -37.90120000     -71.17710000
H      -48.84160000     -37.14500000     -71.31670000
C      -44.38020000     -36.82860000     -72.12890000
H      -43.63960000     -36.40680000     -72.83750000
H      -44.29980000     -37.91370000     -72.38830000
C      -47.88690000     -33.78880000     -74.41580000
H      -48.42820000     -34.10900000     -75.31040000
H      -48.52730000     -33.10390000     -73.74410000
S      -43.77480000     -36.67440000     -70.39640000
S      -46.54540000     -32.68920000     -75.07430000
C      -43.71850000     -34.89180000     -69.96050000
H      -43.15950000     -34.76550000     -68.97500000
H      -43.17550000     -34.30650000     -70.67200000
C      -45.96060000     -31.82940000     -73.49940000
H      -46.74930000     -31.88380000     -72.76120000
H      -45.81060000     -30.74810000     -73.68900000
C      -44.63930000     -32.38810000     -72.73880000
H      -44.77960000     -33.43090000     -72.60810000
H      -43.80800000     -32.40500000     -73.39840000
C      -45.15370000     -34.28480000     -69.78860000
H      -45.59330000     -34.89810000     -69.00970000
H      -45.69020000     -34.23160000     -70.71390000
C      -45.03310000     -32.88740000     -69.27980000
C      -45.09950000     -32.63670000     -67.92300000
C      -44.61790000     -31.74700000     -70.03760000
H      -45.22660000     -33.35340000     -67.10900000
C      -44.32740000     -30.66460000     -69.18910000
C      -44.23570000     -31.51700000     -71.41270000
C      -43.84140000     -30.20510000     -71.62080000
S      -44.68310000     -31.02810000     -67.53060000
S      -43.78110000     -29.27890000     -70.09560000
H      -43.55660000     -29.81160000     -72.55890000
