40
Properties=species:S:1:pos:R:3 #=T CELL(abcABC):=T 1.889726e+02=T 90.00000=T Traj:=T positionsangstrom=T Step:=T 0=T Bead:=T pbc="F F F"
C      -49.19020000     -33.53380000     -71.32590000
C      -47.90160000     -33.01640000     -71.47120000
C      -46.84490000     -33.80360000     -71.95470000
C      -47.08150000     -35.14100000     -72.13000000
C      -48.34450000     -35.67120000     -71.99270000
C      -49.41140000     -34.87200000     -71.52660000
H      -49.95820000     -32.81840000     -71.00960000
H      -45.90660000     -33.31920000     -72.07590000
H      -48.55210000     -36.67360000     -72.10290000
H      -50.34730000     -35.40420000     -71.38360000
C      -45.95260000     -35.93520000     -72.62300000
H      -45.17890000     -35.22290000     -73.03550000
H      -46.18320000     -36.56600000     -73.43440000
C      -47.65540000     -31.58410000     -71.16310000
H      -46.78800000     -31.33980000     -71.70140000
H      -48.44360000     -30.95030000     -71.44220000
S      -45.13620000     -36.94310000     -71.39100000
S      -47.38980000     -31.30580000     -69.27680000
C      -44.80280000     -35.77190000     -70.00730000
H      -45.59720000     -35.05400000     -69.87850000
H      -44.81260000     -36.26890000     -69.01750000
C      -46.13210000     -32.53280000     -68.95690000
H      -46.27750000     -33.39800000     -69.59660000
H      -46.36060000     -32.88780000     -67.98670000
C      -44.69000000     -32.04390000     -68.93730000
H      -44.51730000     -31.13090000     -68.30640000
H      -44.07770000     -32.83390000     -68.43680000
C      -43.39410000     -35.10280000     -70.06360000
H      -42.66930000     -35.88560000     -70.13880000
H      -43.26290000     -34.63430000     -69.16420000
C      -43.17110000     -34.13360000     -71.20320000
C      -42.65910000     -34.48200000     -72.40860000
C      -43.41380000     -32.69010000     -71.15340000
H      -42.29190000     -35.49360000     -72.71570000
C      -43.03820000     -32.11040000     -72.37880000
C      -44.11470000     -31.72120000     -70.30730000
C      -44.22860000     -30.49770000     -70.86630000
S      -42.45640000     -33.20990000     -73.54250000
S      -43.48990000     -30.38270000     -72.44120000
H      -44.56350000     -29.63390000     -70.33620000
