40
Properties=species:S:1:pos:R:3 #=T CELL(abcABC):=T 1.889726e+02=T 90.00000=T Traj:=T positionsangstrom=T Step:=T 0=T Bead:=T pbc="F F F"
C      -49.12210000     -33.89650000     -70.31900000
C      -48.05850000     -33.12830000     -70.84460000
C      -47.14550000     -33.68640000     -71.79800000
C      -47.26710000     -35.05990000     -72.09750000
C      -48.43780000     -35.77030000     -71.75580000
C      -49.30840000     -35.18840000     -70.81170000
H      -49.62840000     -33.59620000     -69.41260000
H      -46.20150000     -33.16960000     -72.09760000
H      -48.72540000     -36.79480000     -72.07950000
H      -50.22530000     -35.71080000     -70.52530000
C      -46.37930000     -35.70940000     -73.11690000
H      -46.09990000     -34.95770000     -73.83540000
H      -47.02520000     -36.40050000     -73.63760000
C      -47.80230000     -31.70440000     -70.42160000
H      -47.10220000     -31.13700000     -71.09070000
H      -48.65730000     -31.10090000     -70.30140000
S      -44.99530000     -36.76410000     -72.41240000
S      -46.98680000     -31.70410000     -68.71120000
C      -44.68600000     -35.93930000     -70.76680000
H      -45.41410000     -35.24670000     -70.51290000
H      -44.74140000     -36.69370000     -69.98360000
C      -45.62520000     -33.01940000     -68.85360000
H      -45.79030000     -33.56380000     -69.79820000
H      -45.78800000     -33.69250000     -67.96670000
C      -44.11610000     -32.54530000     -68.79830000
H      -44.00700000     -31.91380000     -67.88150000
H      -43.50800000     -33.44760000     -68.56920000
C      -43.32300000     -35.20120000     -70.71880000
H      -42.59700000     -35.94530000     -71.05330000
H      -43.15340000     -35.01010000     -69.65350000
C      -43.24490000     -34.01630000     -71.60580000
C      -42.93740000     -34.15060000     -72.92050000
C      -43.52750000     -32.58090000     -71.35460000
H      -42.63980000     -35.11130000     -73.41940000
C      -43.42690000     -31.77630000     -72.49690000
C      -43.77450000     -31.89080000     -70.16770000
C      -43.85510000     -30.54760000     -70.41230000
S      -43.05370000     -32.70890000     -73.91850000
S      -43.44600000     -30.10860000     -72.07140000
H      -44.05030000     -29.78850000     -69.66810000
