40
Properties=species:S:1:pos:R:3 #=T CELL(abcABC):=T 1.889726e+02=T 90.00000=T Traj:=T positionsangstrom=T Step:=T 0=T Bead:=T pbc="F F F"
C      -48.79820000     -33.48620000     -70.78640000
C      -47.63460000     -32.94420000     -71.34700000
C      -46.70710000     -33.78740000     -72.04780000
C      -47.05400000     -35.09490000     -72.34920000
C      -48.23090000     -35.66470000     -71.78710000
C      -49.05450000     -34.85000000     -70.95000000
H      -49.46120000     -32.84390000     -70.17690000
H      -45.79510000     -33.42970000     -72.44710000
H      -48.45900000     -36.69350000     -72.01460000
H      -49.88260000     -35.25420000     -70.45290000
C      -45.99800000     -35.95240000     -73.07370000
H      -45.21170000     -35.27460000     -73.44260000
H      -46.38030000     -36.52100000     -73.85720000
C      -47.24470000     -31.53400000     -71.06280000
H      -46.22280000     -31.24630000     -71.35020000
H      -47.88620000     -30.79530000     -71.46160000
S      -45.18780000     -37.10440000     -71.82610000
S      -47.18650000     -31.19360000     -69.23630000
C      -44.65430000     -36.13470000     -70.38060000
H      -45.43230000     -35.41640000     -70.22830000
H      -44.68340000     -36.79670000     -69.48760000
C      -46.18050000     -32.63940000     -68.66270000
H      -46.47760000     -33.59960000     -69.20710000
H      -46.28360000     -32.90300000     -67.60960000
C      -44.68510000     -32.44890000     -68.75480000
H      -44.35910000     -31.74130000     -67.96820000
H      -44.11320000     -33.37440000     -68.54450000
C      -43.32390000     -35.45100000     -70.60380000
H      -42.47360000     -35.98360000     -71.11340000
H      -42.91140000     -35.08430000     -69.66360000
C      -43.33820000     -34.16890000     -71.49080000
C      -42.77290000     -34.29650000     -72.76000000
C      -43.71390000     -32.80410000     -71.20460000
H      -42.52660000     -35.25330000     -73.16660000
C      -43.50760000     -31.96870000     -72.31370000
C      -44.16690000     -31.92870000     -70.08070000
C      -44.24250000     -30.56320000     -70.38640000
S      -42.77720000     -32.81010000     -73.67430000
S      -43.66800000     -30.25250000     -72.06790000
H      -44.74480000     -29.79880000     -69.79990000
