40
Properties=species:S:1:pos:R:3 #=T CELL(abcABC):=T 1.889726e+02=T 90.00000=T Traj:=T positionsangstrom=T Step:=T 0=T Bead:=T pbc="F F F"
C      -48.19540000     -35.27770000     -72.59720000
C      -47.30430000     -34.60870000     -73.49350000
C      -46.08500000     -35.16940000     -73.69460000
C      -45.67890000     -36.34220000     -73.00700000
C      -46.55830000     -37.03370000     -72.22910000
C      -47.85030000     -36.51820000     -72.06530000
H      -49.20720000     -34.88210000     -72.29840000
H      -45.42730000     -34.74950000     -74.40180000
H      -46.24370000     -37.96550000     -71.73560000
H      -48.62180000     -37.04040000     -71.41910000
C      -44.26820000     -36.81810000     -73.17010000
H      -43.81910000     -36.26000000     -74.02080000
H      -44.29130000     -37.87700000     -73.26130000
C      -47.68370000     -33.31510000     -74.37880000
H      -48.12100000     -33.68850000     -75.31060000
H      -48.49820000     -32.75590000     -73.86520000
S      -42.96120000     -36.46110000     -71.76610000
S      -46.42840000     -32.06250000     -74.83870000
C      -43.31190000     -34.75280000     -71.28220000
H      -42.34490000     -34.31740000     -70.85050000
H      -43.38070000     -34.19340000     -72.15660000
C      -46.22410000     -31.10100000     -73.29930000
H      -47.07180000     -30.37850000     -73.26060000
H      -45.35980000     -30.48090000     -73.47110000
C      -45.93300000     -31.94680000     -72.04840000
H      -46.88080000     -32.56740000     -71.76070000
H      -45.19770000     -32.72580000     -72.31950000
C      -44.46980000     -34.65440000     -70.28340000
H      -44.34510000     -35.58540000     -69.64900000
H      -45.38820000     -34.72730000     -70.92330000
C      -44.42900000     -33.39920000     -69.43810000
C      -43.75220000     -33.45090000     -68.22980000
C      -44.91630000     -32.06030000     -69.70230000
H      -43.48510000     -34.30890000     -67.62600000
C      -44.68060000     -31.22940000     -68.60170000
C      -45.48730000     -31.27150000     -70.78600000
C      -45.53030000     -29.93450000     -70.51090000
S      -44.02140000     -32.02620000     -67.23500000
S      -44.99730000     -29.57000000     -68.81660000
H      -46.18480000     -29.25330000     -71.06210000
