40
Properties=species:S:1:pos:R:3 #=T CELL(abcABC):=T 1.889726e+02=T 90.00000=T Traj:=T positionsangstrom=T Step:=T 0=T Bead:=T pbc="F F F"
C      -49.16840000     -33.52910000     -71.47850000
C      -47.89320000     -32.90720000     -71.65870000
C      -46.80270000     -33.76030000     -72.04010000
C      -46.98220000     -35.16070000     -72.04600000
C      -48.21700000     -35.69140000     -71.68900000
C      -49.30330000     -34.88670000     -71.48210000
H      -50.00480000     -33.02540000     -71.07400000
H      -45.90210000     -33.39620000     -72.36580000
H      -48.26730000     -36.77360000     -71.61960000
H      -50.30340000     -35.35370000     -71.34530000
C      -45.86520000     -36.11900000     -72.32420000
H      -45.10380000     -35.60020000     -72.98550000
H      -46.22200000     -37.04650000     -72.91070000
C      -47.67170000     -31.41610000     -71.56050000
H      -46.73850000     -31.08940000     -71.99910000
H      -48.46840000     -30.84110000     -71.98440000
S      -45.08680000     -36.92100000     -70.74940000
S      -47.45380000     -30.81380000     -69.81640000
C      -45.03920000     -35.57090000     -69.47060000
H      -45.92430000     -35.05210000     -69.61420000
H      -45.18020000     -36.01740000     -68.43520000
C      -46.06790000     -31.84380000     -69.14670000
H      -46.25500000     -32.85960000     -69.50770000
H      -46.34550000     -31.89280000     -68.08920000
C      -44.64710000     -31.34650000     -69.28080000
H      -44.62110000     -30.24550000     -69.11330000
H      -44.04910000     -31.81740000     -68.53350000
C      -43.70170000     -34.76720000     -69.42310000
H      -42.99670000     -35.53860000     -69.14990000
H      -43.69250000     -34.01550000     -68.60480000
C      -43.37220000     -34.09960000     -70.77110000
C      -42.79280000     -34.90970000     -71.73930000
C      -43.56680000     -32.71480000     -71.19270000
H      -42.47850000     -35.93600000     -71.62190000
C      -43.13370000     -32.48870000     -72.47450000
C      -44.03270000     -31.43930000     -70.68180000
C      -44.04080000     -30.39320000     -71.53260000
S      -42.49290000     -33.97040000     -73.24080000
S      -43.30510000     -30.85140000     -73.07000000
H      -44.24930000     -29.32400000     -71.34160000
