40
Properties=species:S:1:pos:R:3 #=T CELL(abcABC):=T 1.889726e+02=T 90.00000=T Traj:=T positionsangstrom=T Step:=T 0=T Bead:=T pbc="F F F"
C      -48.16730000     -35.09960000     -72.60490000
C      -47.32020000     -34.61690000     -73.60970000
C      -46.08690000     -35.21160000     -73.77260000
C      -45.62420000     -36.26290000     -72.88730000
C      -46.45610000     -36.72480000     -71.87450000
C      -47.75710000     -36.12790000     -71.79170000
H      -49.15040000     -34.70650000     -72.50540000
H      -45.50320000     -34.76730000     -74.59100000
H      -46.04080000     -37.41370000     -71.18810000
H      -48.27850000     -36.25040000     -70.78860000
C      -44.18960000     -36.62850000     -73.03150000
H      -43.63800000     -35.82330000     -73.48980000
H      -44.00810000     -37.45780000     -73.73350000
C      -47.76760000     -33.49070000     -74.46910000
H      -48.02890000     -33.86450000     -75.45000000
H      -48.63640000     -33.02910000     -73.97950000
S      -43.26110000     -36.93100000     -71.37100000
S      -46.50570000     -32.23020000     -74.84930000
C      -43.27110000     -35.25600000     -70.71820000
H      -42.42040000     -35.23250000     -69.93700000
H      -43.06430000     -34.62250000     -71.51400000
C      -46.26390000     -31.32470000     -73.26680000
H      -47.31460000     -31.24970000     -72.83650000
H      -45.91630000     -30.36340000     -73.57600000
C      -45.17380000     -32.05310000     -72.46250000
H      -45.50470000     -33.07280000     -72.35630000
H      -44.25020000     -32.04250000     -73.09270000
C      -44.61680000     -34.66520000     -70.07750000
H      -45.09710000     -35.34600000     -69.36180000
H      -45.38970000     -34.46070000     -70.76300000
C      -44.39560000     -33.37400000     -69.27070000
C      -44.29850000     -33.33120000     -67.87630000
C      -44.60740000     -31.97010000     -69.77150000
H      -43.96800000     -34.05800000     -67.18610000
C      -44.58120000     -30.98060000     -68.77810000
C      -44.93550000     -31.40810000     -71.10100000
C      -45.05900000     -30.03840000     -71.07590000
S      -44.49710000     -31.71130000     -67.17530000
S      -44.89360000     -29.38450000     -69.43510000
H      -45.11460000     -29.44010000     -72.00460000
