40
Properties=species:S:1:pos:R:3 #=T CELL(abcABC):=T 1.889726e+02=T 90.00000=T Traj:=T positionsangstrom=T Step:=T 0=T Bead:=T pbc="F F F"
C      -48.83170000     -32.79970000     -72.14950000
C      -47.43380000     -32.72400000     -72.40940000
C      -46.62750000     -33.85710000     -72.17460000
C      -47.18730000     -34.98310000     -71.48560000
C      -48.58380000     -35.03450000     -71.21490000
C      -49.37170000     -33.91620000     -71.50750000
H      -49.53310000     -32.01250000     -72.43650000
H      -45.55570000     -33.89710000     -72.28060000
H      -49.01820000     -35.91420000     -70.85650000
H      -50.36630000     -33.77300000     -71.24890000
C      -46.40220000     -36.24110000     -71.17330000
H      -45.51890000     -36.38390000     -71.73210000
H      -46.97790000     -37.20670000     -71.24660000
C      -46.86180000     -31.51090000     -73.01560000
H      -45.91620000     -31.65370000     -73.52730000
H      -47.57590000     -31.09890000     -73.69750000
S      -46.00960000     -36.19600000     -69.33870000
S      -46.78320000     -30.15200000     -71.70460000
C      -45.98950000     -34.39660000     -68.85420000
H      -46.50660000     -33.82120000     -69.58260000
H      -46.42210000     -34.22250000     -67.88220000
C      -45.93170000     -30.77320000     -70.21270000
H      -46.25220000     -31.79300000     -69.96460000
H      -46.23170000     -30.02800000     -69.41870000
C      -44.42440000     -30.76780000     -70.23090000
H      -44.00990000     -29.73010000     -70.16350000
H      -44.02590000     -31.30070000     -69.28210000
C      -44.53980000     -33.89200000     -68.73820000
H      -44.04710000     -34.49690000     -67.92460000
H      -44.48090000     -32.83440000     -68.37540000
C      -43.65900000     -34.03720000     -70.02100000
C      -43.12950000     -35.24760000     -70.37250000
C      -43.66220000     -33.11030000     -71.13090000
H      -42.97300000     -36.17080000     -69.72320000
C      -42.99860000     -33.60940000     -72.23580000
C      -43.80980000     -31.62670000     -71.27130000
C      -43.33870000     -31.11790000     -72.43020000
S      -42.52820000     -35.31240000     -72.02330000
S      -42.76880000     -32.46350000     -73.51300000
H      -43.53180000     -30.12250000     -72.83210000
