40
Properties=species:S:1:pos:R:3 #=T CELL(abcABC):=T 1.889726e+02=T 90.00000=T Traj:=T positionsangstrom=T Step:=T 0=T Bead:=T pbc="F F F"
C      -49.07390000     -32.84570000     -71.73590000
C      -47.73350000     -32.75470000     -72.12050000
C      -46.81760000     -33.88550000     -71.96860000
C      -47.31610000     -35.07740000     -71.42100000
C      -48.69350000     -35.20600000     -71.12350000
C      -49.56660000     -34.09750000     -71.24450000
H      -49.60930000     -31.89540000     -71.74280000
H      -45.76250000     -33.67970000     -72.07460000
H      -49.10430000     -36.11530000     -70.70240000
H      -50.66130000     -34.22760000     -71.07720000
C      -46.48280000     -36.27710000     -71.35430000
H      -45.60640000     -36.10970000     -71.97830000
H      -47.02330000     -37.12910000     -71.61480000
C      -47.32760000     -31.47360000     -72.75300000
H      -46.46690000     -31.53950000     -73.36700000
H      -48.09060000     -31.05640000     -73.34950000
S      -45.84120000     -36.50270000     -69.54280000
S      -46.95800000     -30.13420000     -71.51360000
C      -45.56740000     -34.79330000     -68.96050000
H      -46.07280000     -34.12590000     -69.67980000
H      -46.01030000     -34.67620000     -67.97500000
C      -46.12420000     -31.00050000     -70.11440000
H      -46.46400000     -32.05250000     -69.99270000
H      -46.45800000     -30.54040000     -69.15670000
C      -44.56710000     -30.86750000     -70.11790000
H      -44.34820000     -29.76650000     -70.15740000
H      -44.19910000     -31.19530000     -69.17660000
C      -44.11820000     -34.23740000     -68.82370000
H      -43.48110000     -34.88180000     -68.22980000
H      -44.24180000     -33.25640000     -68.28190000
C      -43.42940000     -34.09930000     -70.19920000
C      -42.88040000     -35.22820000     -70.72110000
C      -43.41440000     -32.88770000     -71.10780000
H      -42.80770000     -36.20540000     -70.26160000
C      -42.75950000     -33.30200000     -72.32180000
C      -43.91240000     -31.54510000     -71.27490000
C      -43.59380000     -30.90500000     -72.45150000
S      -42.26020000     -35.03640000     -72.33370000
S      -42.76940000     -32.07780000     -73.51600000
H      -43.74080000     -29.88200000     -72.66530000
