40
Properties=species:S:1:pos:R:3 #=T CELL(abcABC):=T 1.889726e+02=T 90.00000=T Traj:=T positionsangstrom=T Step:=T 0=T Bead:=T pbc="F F F"
C      -48.87550000     -32.75470000     -72.49270000
C      -47.44620000     -32.78200000     -72.60160000
C      -46.74350000     -33.92650000     -72.09850000
C      -47.46590000     -34.97010000     -71.50860000
C      -48.85150000     -34.88700000     -71.36980000
C      -49.55370000     -33.76780000     -71.84010000
H      -49.35040000     -31.81210000     -72.83760000
H      -45.63350000     -34.06310000     -72.15770000
H      -49.50740000     -35.58420000     -70.82290000
H      -50.65910000     -33.80290000     -71.87940000
C      -46.70810000     -36.08050000     -70.88310000
H      -45.73220000     -36.14660000     -71.38310000
H      -47.19930000     -37.04090000     -70.98270000
C      -46.70660000     -31.65890000     -73.29660000
H      -45.67690000     -31.95440000     -73.45900000
H      -47.21300000     -31.28730000     -74.15650000
S      -46.44540000     -35.90410000     -69.05120000
S      -46.71090000     -30.13670000     -72.06500000
C      -45.94720000     -34.13360000     -68.68070000
H      -46.43780000     -33.45170000     -69.34220000
H      -46.35750000     -33.90670000     -67.75070000
C      -46.03440000     -30.78860000     -70.47550000
H      -46.45840000     -31.85730000     -70.34790000
H      -46.43010000     -30.16070000     -69.65980000
C      -44.45800000     -30.76310000     -70.33050000
H      -44.01980000     -29.80770000     -70.58060000
H      -44.30240000     -30.89620000     -69.20010000
C      -44.40450000     -33.96220000     -68.61910000
H      -44.00540000     -34.51900000     -67.72840000
H      -44.19130000     -32.95820000     -68.27680000
C      -43.77850000     -34.15990000     -70.02860000
C      -43.30100000     -35.44720000     -70.35000000
C      -43.47000000     -33.17590000     -70.99880000
H      -43.32540000     -36.35630000     -69.82470000
C      -42.81440000     -33.71200000     -72.09060000
C      -43.74020000     -31.77500000     -71.18830000
C      -43.13590000     -31.28910000     -72.35670000
S      -42.42110000     -35.40680000     -71.91010000
S      -42.24840000     -32.54940000     -73.30520000
H      -43.07100000     -30.26260000     -72.74300000
