40
Properties=species:S:1:pos:R:3 #=T CELL(abcABC):=T 1.889726e+02=T 90.00000=T Traj:=T positionsangstrom=T Step:=T 0=T Bead:=T pbc="F F F"
C      -48.92140000     -32.64290000     -72.68580000
C      -47.51740000     -32.73770000     -72.61500000
C      -46.91470000     -33.85470000     -72.00070000
C      -47.71340000     -34.86310000     -71.43270000
C      -49.11610000     -34.78160000     -71.54500000
C      -49.67820000     -33.64900000     -72.12640000
H      -49.28200000     -31.85100000     -73.32970000
H      -45.85960000     -33.71720000     -71.94400000
H      -49.79770000     -35.65810000     -71.25340000
H      -50.79970000     -33.59770000     -72.08080000
C      -46.95550000     -36.02270000     -70.85560000
H      -45.94430000     -36.26050000     -71.24450000
H      -47.56440000     -36.93760000     -70.86560000
C      -46.66030000     -31.62800000     -73.20110000
H      -45.66790000     -32.05370000     -73.46770000
H      -46.98020000     -31.36680000     -74.17410000
S      -46.70510000     -35.78800000     -68.87140000
S      -46.55410000     -30.10540000     -72.22400000
C      -46.06830000     -34.06750000     -68.85880000
H      -46.28850000     -33.60920000     -69.88150000
H      -46.51560000     -33.46080000     -68.04130000
C      -46.04570000     -30.77320000     -70.56230000
H      -46.38840000     -31.74750000     -70.38210000
H      -46.43560000     -30.08230000     -69.80580000
C      -44.47930000     -30.90270000     -70.34040000
H      -44.03450000     -29.89910000     -70.66870000
H      -44.24670000     -31.08190000     -69.26830000
C      -44.50660000     -34.05180000     -68.68380000
H      -44.08650000     -34.73510000     -67.92830000
H      -44.23780000     -33.04480000     -68.34960000
C      -43.69200000     -34.27750000     -69.93760000
C      -43.06940000     -35.50450000     -70.25410000
C      -43.39970000     -33.24250000     -70.98520000
H      -43.19520000     -36.31130000     -69.55970000
C      -42.56910000     -33.80290000     -72.01760000
C      -43.62310000     -31.80250000     -71.14800000
C      -43.04810000     -31.38670000     -72.37740000
S      -42.23700000     -35.52660000     -71.77140000
S      -42.09400000     -32.59390000     -73.24950000
H      -43.26540000     -30.42250000     -72.75430000
