40
Properties=species:S:1:pos:R:3 #=T CELL(abcABC):=T 1.889726e+02=T 90.00000=T Traj:=T positionsangstrom=T Step:=T 0=T Bead:=T pbc="F F F"
C      -46.78190000     -31.71460000     -68.23340000
C      -45.37620000     -31.78210000     -68.33140000
C      -44.64140000     -31.04810000     -69.29140000
C      -45.37570000     -30.25210000     -70.16030000
C      -46.77030000     -30.09640000     -70.05220000
C      -47.45820000     -30.83810000     -69.08640000
H      -47.34890000     -32.28400000     -67.51750000
H      -43.56960000     -31.15570000     -69.42780000
H      -47.16050000     -29.42860000     -70.83620000
H      -48.45730000     -30.60510000     -68.78480000
C      -44.63490000     -29.49970000     -71.18970000
H      -43.51620000     -29.79160000     -70.99430000
H      -44.70960000     -28.34840000     -71.11580000
C      -44.61720000     -32.67640000     -67.37080000
H      -43.58440000     -32.60420000     -67.66870000
H      -44.83430000     -32.48660000     -66.31860000
S      -45.08880000     -29.81190000     -72.91560000
S      -45.10630000     -34.47490000     -67.63930000
C      -45.37660000     -31.70150000     -73.07550000
H      -46.01710000     -31.96800000     -72.23650000
H      -45.97680000     -31.84160000     -73.98220000
C      -44.89410000     -34.51370000     -69.47120000
H      -44.47430000     -35.54150000     -69.76080000
H      -44.11750000     -33.87860000     -69.82860000
C      -46.17170000     -34.19720000     -70.30580000
H      -47.19600000     -34.46560000     -69.92390000
H      -46.12250000     -33.13630000     -70.54720000
C      -44.03960000     -32.53030000     -72.87660000
H      -43.72500000     -32.41080000     -71.81820000
H      -43.36670000     -32.03250000     -73.53100000
C      -44.29910000     -33.94430000     -73.27150000
C      -43.63180000     -34.41790000     -74.47730000
C      -45.20580000     -34.90700000     -72.71010000
H      -42.94080000     -33.84130000     -75.08400000
C      -45.16270000     -36.06980000     -73.42940000
C      -46.09650000     -35.02530000     -71.55830000
C      -46.80270000     -36.23540000     -71.55800000
S      -44.06470000     -36.07850000     -74.82140000
S      -46.32420000     -37.26840000     -72.83340000
H      -47.37950000     -36.64360000     -70.73120000
