40
Properties=species:S:1:pos:R:3 #=T CELL(abcABC):=T 1.889726e+02=T 90.00000=T Traj:=T positionsangstrom=T Step:=T 0=T Bead:=T pbc="F F F"
C      -48.13850000     -32.26190000     -73.24520000
C      -46.77210000     -32.60840000     -73.23820000
C      -46.44210000     -33.85080000     -72.66600000
C      -47.49180000     -34.62920000     -72.10770000
C      -48.85550000     -34.31020000     -72.20870000
C      -49.15300000     -32.98680000     -72.69830000
H      -48.35180000     -31.29750000     -73.69540000
H      -45.34960000     -34.09300000     -72.48050000
H      -49.65620000     -34.93180000     -71.75920000
H      -50.18930000     -32.68410000     -72.79900000
C      -46.99280000     -35.77650000     -71.26640000
H      -45.94280000     -35.85080000     -71.44620000
H      -47.33210000     -36.76850000     -71.59380000
C      -45.71740000     -31.71370000     -73.65520000
H      -44.78250000     -32.25100000     -73.55470000
H      -45.71120000     -31.33250000     -74.66830000
S      -47.36360000     -35.60750000     -69.48110000
S      -45.66160000     -30.11360000     -72.71360000
C      -46.96120000     -33.85300000     -69.20920000
H      -47.20600000     -33.28050000     -70.11910000
H      -47.63160000     -33.56800000     -68.46120000
C      -45.67220000     -30.59720000     -70.99730000
H      -46.28100000     -31.47530000     -70.92500000
H      -46.15960000     -29.90310000     -70.40850000
C      -44.31820000     -30.85880000     -70.41590000
H      -43.66460000     -30.04280000     -70.35130000
H      -44.40930000     -31.03820000     -69.33350000
C      -45.58100000     -33.53070000     -68.67060000
H      -45.55380000     -33.91320000     -67.62390000
H      -45.50790000     -32.40490000     -68.53660000
C      -44.44530000     -34.05460000     -69.41410000
C      -44.01670000     -35.34970000     -69.31620000
C      -43.69020000     -33.34820000     -70.42280000
H      -44.49140000     -36.02360000     -68.65870000
C      -42.79870000     -34.18770000     -71.14650000
C      -43.51190000     -32.02830000     -70.93290000
C      -42.65480000     -31.87710000     -72.00340000
S      -42.84260000     -35.81060000     -70.51910000
S      -42.00490000     -33.42320000     -72.53760000
H      -42.50190000     -30.88490000     -72.42260000
