40
Properties=species:S:1:pos:R:3 #=T CELL(abcABC):=T 1.889726e+02=T 90.00000=T Traj:=T positionsangstrom=T Step:=T 0=T Bead:=T pbc="F F F"
C      -48.30560000     -32.40360000     -73.10220000
C      -46.94300000     -32.68460000     -73.08600000
C      -46.52610000     -33.89240000     -72.52940000
C      -47.52710000     -34.73470000     -71.98500000
C      -48.90410000     -34.40400000     -71.98010000
C      -49.25890000     -33.23340000     -72.59730000
H      -48.66880000     -31.44190000     -73.58440000
H      -45.44550000     -34.17080000     -72.41610000
H      -49.58890000     -35.14780000     -71.58110000
H      -50.23870000     -32.84910000     -72.43660000
C      -47.04490000     -35.96480000     -71.25570000
H      -45.97980000     -36.25030000     -71.56200000
H      -47.77090000     -36.78420000     -71.38260000
C      -45.94670000     -31.66090000     -73.70260000
H      -45.01920000     -32.19260000     -73.96210000
H      -46.44740000     -31.39250000     -74.67150000
S      -47.14770000     -35.75870000     -69.45720000
S      -45.48760000     -30.06180000     -72.84970000
C      -46.83060000     -33.93640000     -69.15270000
H      -46.84580000     -33.47140000     -70.14790000
H      -47.65230000     -33.50680000     -68.51230000
C      -45.74310000     -30.33180000     -71.04500000
H      -46.50410000     -31.13880000     -70.88920000
H      -46.06600000     -29.32310000     -70.60840000
C      -44.38520000     -30.71820000     -70.36680000
H      -43.82190000     -29.82510000     -70.66440000
H      -44.53250000     -30.72040000     -69.21330000
C      -45.40200000     -33.70410000     -68.49070000
H      -45.38750000     -34.36280000     -67.57450000
H      -45.31170000     -32.69060000     -68.28620000
C      -44.28470000     -34.09660000     -69.41170000
C      -43.89750000     -35.40460000     -69.42930000
C      -43.70300000     -33.33230000     -70.48090000
H      -44.30170000     -36.17520000     -68.74420000
C      -42.87510000     -34.09620000     -71.28070000
C      -43.73240000     -31.96080000     -70.93730000
C      -42.84480000     -31.76270000     -71.97830000
S      -42.76720000     -35.69430000     -70.68830000
S      -42.07050000     -33.23400000     -72.55780000
H      -42.64090000     -30.90700000     -72.57600000
