40
Properties=species:S:1:pos:R:3 #=T CELL(abcABC):=T 1.889726e+02=T 90.00000=T Traj:=T positionsangstrom=T Step:=T 0=T Bead:=T pbc="F F F"
C      -48.35120000     -32.44500000     -72.93610000
C      -47.03830000     -32.77270000     -73.14380000
C      -46.55810000     -33.83210000     -72.33700000
C      -47.34820000     -34.72250000     -71.67670000
C      -48.72500000     -34.45260000     -71.58960000
C      -49.21300000     -33.34770000     -72.26980000
H      -48.74040000     -31.56390000     -73.43010000
H      -45.51230000     -34.10290000     -72.27010000
H      -49.42830000     -35.12000000     -71.13880000
H      -50.20770000     -33.04900000     -72.11170000
C      -46.76060000     -35.94510000     -70.84460000
H      -45.71990000     -35.96230000     -71.02710000
H      -47.28610000     -36.82960000     -71.13430000
C      -46.08720000     -31.76890000     -73.76640000
H      -45.08150000     -32.18370000     -73.72680000
H      -46.35760000     -31.43690000     -74.72510000
S      -47.13170000     -35.62440000     -69.11120000
S      -46.12310000     -30.22180000     -72.64820000
C      -46.40070000     -33.94300000     -68.79530000
H      -46.68930000     -33.21740000     -69.51580000
H      -46.91670000     -33.59390000     -67.90410000
C      -46.19920000     -30.81840000     -70.89050000
H      -46.88770000     -31.73800000     -70.82180000
H      -46.70220000     -29.87090000     -70.42450000
C      -44.84840000     -31.06770000     -70.18540000
H      -44.28960000     -30.14860000     -69.94930000
H      -45.00030000     -31.47760000     -69.17340000
C      -44.90090000     -33.96850000     -68.57300000
H      -44.64150000     -34.79030000     -67.98890000
H      -44.62640000     -33.05150000     -68.11610000
C      -43.95030000     -34.27180000     -69.70890000
C      -43.41380000     -35.54440000     -69.81700000
C      -43.62340000     -33.32940000     -70.73950000
H      -43.62050000     -36.38570000     -69.20030000
C      -42.67290000     -33.88590000     -71.66130000
C      -43.88660000     -31.90950000     -70.98160000
C      -43.13670000     -31.48500000     -72.04460000
S      -42.47620000     -35.60360000     -71.34810000
S      -42.17390000     -32.77210000     -72.88010000
H      -43.16690000     -30.43510000     -72.46160000
