40
Properties=species:S:1:pos:R:3 #=T CELL(abcABC):=T 1.889726e+02=T 90.00000=T Traj:=T positionsangstrom=T Step:=T 0=T Bead:=T pbc="F F F"
C      -48.14060000     -32.12260000     -74.03430000
C      -46.86260000     -32.24760000     -73.34800000
C      -46.72010000     -33.36130000     -72.46040000
C      -47.73230000     -34.28670000     -72.20480000
C      -48.98400000     -34.08920000     -72.86460000
C      -49.14360000     -33.03530000     -73.76790000
H      -48.31960000     -31.15540000     -74.58880000
H      -45.72660000     -33.48190000     -72.04380000
H      -49.77680000     -34.79220000     -72.56760000
H      -49.96670000     -33.09020000     -74.42850000
C      -47.41890000     -35.48410000     -71.39380000
H      -46.30470000     -35.59900000     -71.34090000
H      -47.91450000     -36.44290000     -71.69060000
C      -45.56780000     -31.46820000     -73.63570000
H      -44.63850000     -32.14040000     -73.68610000
H      -45.70140000     -30.89460000     -74.64800000
S      -47.81360000     -35.24340000     -69.60090000
S      -45.15140000     -30.08650000     -72.47070000
C      -47.06950000     -33.63340000     -69.26290000
H      -47.18780000     -33.03650000     -70.18930000
H      -47.80690000     -33.14510000     -68.55210000
C      -45.28620000     -30.61080000     -70.69960000
H      -45.99890000     -31.45070000     -70.58550000
H      -45.65640000     -29.72210000     -70.19060000
C      -44.04020000     -31.00050000     -70.09290000
H      -43.23840000     -30.18780000     -70.05910000
H      -44.22480000     -31.19460000     -68.98930000
C      -45.66420000     -33.67020000     -68.67450000
H      -45.72770000     -34.24880000     -67.77610000
H      -45.38110000     -32.74900000     -68.29160000
C      -44.55920000     -34.28950000     -69.48830000
C      -44.43450000     -35.67550000     -69.62030000
C      -43.58520000     -33.60440000     -70.30080000
H      -45.03380000     -36.44080000     -69.07710000
C      -42.78000000     -34.49720000     -70.98620000
C      -43.32300000     -32.21270000     -70.60690000
C      -42.34710000     -32.11510000     -71.58560000
S      -43.05110000     -36.13770000     -70.54240000
S      -41.68920000     -33.66920000     -72.04670000
H      -42.13460000     -31.16970000     -72.08900000
