40
Properties=species:S:1:pos:R:3 #=T CELL(abcABC):=T 1.889726e+02=T 90.00000=T Traj:=T positionsangstrom=T Step:=T 0=T Bead:=T pbc="F F F"
C      -47.44670000     -31.96110000     -73.97690000
C      -46.33080000     -32.72910000     -73.46690000
C      -46.59790000     -33.84290000     -72.66290000
C      -47.93020000     -34.24250000     -72.40160000
C      -49.01190000     -33.59460000     -72.96690000
C      -48.74090000     -32.44710000     -73.83380000
H      -47.25410000     -31.02980000     -74.52130000
H      -45.72980000     -34.41040000     -72.29980000
H      -50.01130000     -33.74840000     -72.57620000
H      -49.54900000     -32.03410000     -74.40070000
C      -48.06160000     -35.38030000     -71.46730000
H      -47.15410000     -35.99490000     -71.48040000
H      -48.89090000     -36.16040000     -71.59730000
C      -44.99970000     -32.13730000     -73.74760000
H      -44.19360000     -32.91020000     -73.54110000
H      -44.84160000     -31.87250000     -74.79980000
S      -48.43160000     -34.68490000     -69.76080000
S      -44.92160000     -30.51560000     -72.86820000
C      -47.32600000     -33.20260000     -69.69040000
H      -47.13680000     -32.90950000     -70.77040000
H      -47.89690000     -32.38530000     -69.32720000
C      -45.14660000     -30.60240000     -71.00200000
H      -45.85670000     -31.34810000     -70.57210000
H      -45.51050000     -29.61100000     -70.72170000
C      -43.78480000     -30.91350000     -70.36220000
H      -43.02230000     -30.23720000     -70.66120000
H      -43.88320000     -30.75980000     -69.30900000
C      -46.04330000     -33.31700000     -68.85740000
H      -46.19800000     -33.78850000     -67.87540000
H      -45.82080000     -32.24900000     -68.64750000
C      -44.80400000     -34.05720000     -69.44070000
C      -44.84260000     -35.45750000     -69.40180000
C      -43.60500000     -33.63300000     -70.18010000
H      -45.60010000     -36.05130000     -68.80370000
C      -42.85390000     -34.64750000     -70.66000000
C      -43.19080000     -32.28820000     -70.61080000
C      -42.03000000     -32.37160000     -71.37030000
S      -43.30750000     -36.17700000     -69.97870000
S      -41.40700000     -34.03690000     -71.56060000
H      -41.52420000     -31.51240000     -71.77870000
