40
Properties=species:S:1:pos:R:3 #=T CELL(abcABC):=T 1.889726e+02=T 90.00000=T Traj:=T positionsangstrom=T Step:=T 0=T Bead:=T pbc="F F F"
C      -47.84660000     -31.99340000     -73.92880000
C      -46.61550000     -32.32570000     -73.33930000
C      -46.55430000     -33.47880000     -72.48260000
C      -47.67300000     -34.32460000     -72.28710000
C      -48.84650000     -34.04140000     -73.01120000
C      -48.91910000     -32.86450000     -73.75700000
H      -47.76410000     -31.19960000     -74.61590000
H      -45.61360000     -33.82340000     -72.10110000
H      -49.69680000     -34.72920000     -72.95680000
H      -49.87400000     -32.72460000     -74.31790000
C      -47.51740000     -35.53190000     -71.44000000
H      -46.51810000     -36.00430000     -71.51600000
H      -48.22550000     -36.20040000     -71.80170000
C      -45.34670000     -31.52010000     -73.57720000
H      -44.59680000     -32.19550000     -73.41960000
H      -45.31660000     -31.10570000     -74.62000000
S      -47.98700000     -35.22650000     -69.68180000
S      -45.01470000     -29.95250000     -72.56100000
C      -47.15070000     -33.65340000     -69.13210000
H      -47.12730000     -32.96570000     -69.93320000
H      -47.72120000     -33.19080000     -68.35260000
C      -45.37660000     -30.45830000     -70.75620000
H      -46.16920000     -31.22790000     -70.73730000
H      -45.85710000     -29.64380000     -70.19860000
C      -44.15590000     -30.99190000     -70.06700000
H      -43.45420000     -30.16940000     -70.21030000
H      -44.49690000     -31.13140000     -69.02830000
C      -45.73350000     -33.81970000     -68.51190000
H      -45.89630000     -34.44300000     -67.63050000
H      -45.39990000     -32.76680000     -68.15370000
C      -44.56920000     -34.31530000     -69.34060000
C      -44.33840000     -35.69390000     -69.37920000
C      -43.70830000     -33.60690000     -70.23940000
H      -44.78000000     -36.41920000     -68.69080000
C      -43.04390000     -34.51180000     -71.11940000
C      -43.49640000     -32.26640000     -70.62640000
C      -42.39860000     -32.19270000     -71.54590000
S      -43.06530000     -36.15490000     -70.55650000
S      -41.78340000     -33.72340000     -72.05750000
H      -42.00290000     -31.31350000     -72.06410000
