40
Properties=species:S:1:pos:R:3 #=T CELL(abcABC):=T 1.889726e+02=T 90.00000=T Traj:=T positionsangstrom=T Step:=T 0=T Bead:=T pbc="F F F"
C      -47.48850000     -31.88090000     -74.12550000
C      -46.32680000     -32.49260000     -73.58590000
C      -46.41300000     -33.55970000     -72.66220000
C      -47.65400000     -34.18730000     -72.39040000
C      -48.83800000     -33.60620000     -72.93270000
C      -48.74630000     -32.47430000     -73.74180000
H      -47.46660000     -31.06940000     -74.88940000
H      -45.47650000     -34.00260000     -72.36410000
H      -49.86400000     -33.99500000     -72.78490000
H      -49.70700000     -32.01050000     -74.02950000
C      -47.69930000     -35.44230000     -71.50680000
H      -46.80240000     -36.15860000     -71.56730000
H      -48.62280000     -35.89250000     -71.88840000
C      -44.96670000     -31.92620000     -73.88450000
H      -44.13400000     -32.63170000     -73.62760000
H      -44.87730000     -31.62190000     -74.97970000
S      -47.94820000     -35.07710000     -69.70880000
S      -44.61760000     -30.31720000     -73.02630000
C      -47.18420000     -33.37120000     -69.50060000
H      -46.88000000     -32.98090000     -70.44020000
H      -47.95450000     -32.74340000     -69.08120000
C      -45.28470000     -30.37230000     -71.29970000
H      -46.27310000     -30.82940000     -71.51130000
H      -45.42460000     -29.30970000     -71.06320000
C      -44.44270000     -30.97970000     -70.17420000
H      -43.74420000     -30.18310000     -69.89580000
H      -45.06060000     -31.11500000     -69.26160000
C      -46.00740000     -33.62800000     -68.52640000
H      -46.31890000     -34.37250000     -67.73920000
H      -45.45860000     -32.79180000     -68.11730000
C      -44.90600000     -34.33800000     -69.22990000
C      -44.61070000     -35.69600000     -69.13490000
C      -43.97630000     -33.68460000     -70.10880000
H      -45.14190000     -36.46090000     -68.62190000
C      -43.02720000     -34.59380000     -70.70050000
C      -43.68360000     -32.31810000     -70.48980000
C      -42.51580000     -32.25430000     -71.27620000
S      -43.36330000     -36.24160000     -70.25620000
S      -41.71590000     -33.77000000     -71.48650000
H      -42.10940000     -31.34830000     -71.85390000
