40
Properties=species:S:1:pos:R:3 #=T CELL(abcABC):=T 1.889726e+02=T 90.00000=T Traj:=T positionsangstrom=T Step:=T 0=T Bead:=T pbc="F F F"
C      -43.08960000     -36.39610000     -69.82150000
C      -44.44670000     -36.61280000     -70.13520000
C      -45.41840000     -35.93800000     -69.38310000
C      -45.09620000     -34.95170000     -68.39200000
C      -43.71280000     -34.79260000     -68.10890000
C      -42.80320000     -35.60870000     -68.75970000
H      -42.34360000     -36.99440000     -70.32770000
H      -46.44510000     -36.13630000     -69.66490000
H      -43.32140000     -34.17260000     -67.37170000
H      -41.75790000     -35.38940000     -68.60430000
C      -46.11860000     -33.97790000     -67.83220000
H      -46.37450000     -34.16970000     -66.87500000
H      -46.96390000     -33.91980000     -68.49400000
C      -44.66660000     -37.58210000     -71.30800000
H      -43.90320000     -37.43600000     -72.05300000
H      -44.80580000     -38.63390000     -70.98050000
S      -45.28050000     -32.34430000     -67.65880000
S      -46.29760000     -37.10080000     -72.08040000
C      -45.13470000     -31.75670000     -69.40300000
H      -44.62410000     -30.85530000     -69.26540000
H      -44.49710000     -32.30340000     -70.09440000
C      -45.99860000     -35.54600000     -73.00490000
H      -46.84470000     -35.57070000     -73.75300000
H      -44.98300000     -35.59960000     -73.47530000
C      -46.07570000     -34.26050000     -72.20430000
H      -47.09530000     -34.11880000     -71.71130000
H      -45.48300000     -34.32300000     -71.35900000
C      -46.45320000     -31.45230000     -70.14530000
H      -46.98800000     -30.73240000     -69.48770000
H      -47.17970000     -32.24870000     -70.16490000
C      -46.12670000     -30.87200000     -71.53480000
C      -45.98940000     -29.53600000     -71.73680000
C      -45.72440000     -31.70010000     -72.71940000
H      -46.29600000     -28.77810000     -71.09030000
C      -45.44950000     -30.89920000     -73.79700000
C      -45.68780000     -33.09620000     -73.09760000
C      -45.25810000     -33.21940000     -74.40860000
S      -45.60160000     -29.14920000     -73.45910000
S      -44.91650000     -31.72490000     -75.26920000
H      -45.17540000     -34.19860000     -74.96180000
