40
Properties=species:S:1:pos:R:3 #=T CELL(abcABC):=T 1.889726e+02=T 90.00000=T Traj:=T positionsangstrom=T Step:=T 0=T Bead:=T pbc="F F F"
C      -43.02630000     -36.59600000     -69.68860000
C      -44.37720000     -36.70730000     -70.02420000
C      -45.18400000     -35.88340000     -69.26440000
C      -44.81190000     -34.92000000     -68.29770000
C      -43.39380000     -34.82510000     -68.02130000
C      -42.59560000     -35.68410000     -68.75690000
H      -42.25070000     -37.17510000     -70.25740000
H      -46.29680000     -36.03720000     -69.41650000
H      -42.91240000     -34.14510000     -67.30130000
H      -41.52400000     -35.80340000     -68.53340000
C      -45.92240000     -34.07700000     -67.66940000
H      -46.21470000     -34.27260000     -66.55610000
H      -46.89550000     -34.24590000     -68.22900000
C      -44.90590000     -37.72560000     -71.09400000
H      -44.14360000     -38.06690000     -71.81950000
H      -45.15930000     -38.62740000     -70.52190000
S      -45.60430000     -32.24140000     -67.69360000
S      -46.33920000     -37.10090000     -72.07550000
C      -45.09680000     -31.80780000     -69.41680000
H      -44.51310000     -30.84230000     -69.24460000
H      -44.45670000     -32.61930000     -69.88120000
C      -45.80010000     -35.69160000     -73.11430000
H      -46.40110000     -35.70910000     -73.97030000
H      -44.85370000     -35.89060000     -73.60080000
C      -45.67410000     -34.31250000     -72.39400000
H      -46.48810000     -34.16050000     -71.73860000
H      -44.67640000     -34.44220000     -71.81670000
C      -46.46940000     -31.67820000     -70.24920000
H      -47.25070000     -31.14720000     -69.74610000
H      -46.73330000     -32.72650000     -70.45550000
C      -46.17660000     -30.94670000     -71.58810000
C      -46.39740000     -29.59220000     -71.83510000
C      -45.62820000     -31.61980000     -72.75580000
H      -46.65240000     -28.89160000     -70.97850000
C      -45.36470000     -30.74020000     -73.79520000
C      -45.60590000     -33.06210000     -73.23740000
C      -45.25660000     -33.09080000     -74.55950000
S      -45.76560000     -29.08080000     -73.37950000
S      -45.04880000     -31.51230000     -75.34510000
H      -45.23820000     -33.90970000     -75.19850000
