40
Properties=species:S:1:pos:R:3 #=T CELL(abcABC):=T 1.889726e+02=T 90.00000=T Traj:=T positionsangstrom=T Step:=T 0=T Bead:=T pbc="F F F"
C      -47.29610000     -32.00660000     -74.11090000
C      -46.15510000     -32.67730000     -73.57510000
C      -46.31330000     -33.57010000     -72.48320000
C      -47.56560000     -34.04570000     -72.10800000
C      -48.65590000     -33.47870000     -72.73250000
C      -48.54990000     -32.46310000     -73.65560000
H      -47.17680000     -31.27890000     -74.87050000
H      -45.39630000     -33.99430000     -72.12970000
H      -49.69440000     -33.94790000     -72.57450000
H      -49.40450000     -32.04970000     -74.27290000
C      -47.62970000     -35.00430000     -70.93840000
H      -46.69330000     -35.45590000     -70.66300000
H      -48.32470000     -35.81240000     -71.28180000
C      -44.78980000     -32.27520000     -73.95240000
H      -44.06130000     -32.91270000     -73.58030000
H      -44.55320000     -32.21640000     -74.99660000
S      -48.33980000     -34.25360000     -69.29330000
S      -44.40510000     -30.51880000     -73.48220000
C      -47.17430000     -32.75460000     -69.33190000
H      -47.07140000     -32.51180000     -70.40060000
H      -47.79580000     -31.94500000     -68.96940000
C      -44.68900000     -30.51900000     -71.67890000
H      -45.63740000     -31.00030000     -71.44080000
H      -44.80920000     -29.37240000     -71.41640000
C      -43.59970000     -31.06350000     -70.70600000
H      -42.72720000     -30.49780000     -70.93040000
H      -44.08570000     -30.79060000     -69.72510000
C      -45.93340000     -33.03890000     -68.54460000
H      -46.25230000     -33.22230000     -67.53510000
H      -45.40270000     -32.08120000     -68.55950000
C      -45.01580000     -34.04710000     -69.14850000
C      -44.98120000     -35.38700000     -68.87870000
C      -43.90580000     -33.70930000     -70.14410000
H      -45.58290000     -35.80250000     -68.14150000
C      -43.31940000     -34.85290000     -70.60030000
C      -43.36990000     -32.50300000     -70.85560000
C      -42.43010000     -32.88790000     -71.80700000
S      -43.84670000     -36.27270000     -69.84770000
S      -42.09840000     -34.63310000     -71.85490000
H      -41.96940000     -32.17770000     -72.43890000
