40
Properties=species:S:1:pos:R:3 #=T CELL(abcABC):=T 1.889726e+02=T 90.00000=T Traj:=T positionsangstrom=T Step:=T 0=T Bead:=T pbc="F F F"
C      -47.20050000     -32.09410000     -74.18170000
C      -46.02860000     -32.71510000     -73.64040000
C      -46.21430000     -33.71450000     -72.61770000
C      -47.50760000     -33.95420000     -72.10790000
C      -48.58640000     -33.23100000     -72.60050000
C      -48.50150000     -32.31420000     -73.61150000
H      -46.96690000     -31.50060000     -75.05540000
H      -45.33470000     -34.14420000     -72.23670000
H      -49.61640000     -33.36600000     -72.24630000
H      -49.33130000     -31.63110000     -73.85130000
C      -47.72180000     -35.02900000     -71.05430000
H      -46.97710000     -35.80050000     -70.86300000
H      -48.64770000     -35.59330000     -71.32690000
C      -44.69490000     -32.25420000     -74.12800000
H      -43.88860000     -33.10540000     -74.06030000
H      -44.82280000     -32.05240000     -75.23160000
S      -48.28410000     -34.18240000     -69.46940000
S      -44.11850000     -30.66040000     -73.28460000
C      -47.19130000     -32.69730000     -69.16180000
H      -47.03590000     -32.16370000     -70.11430000
H      -47.67640000     -32.03470000     -68.44960000
C      -44.83400000     -30.61650000     -71.62020000
H      -45.79040000     -31.14670000     -71.58140000
H      -44.96950000     -29.55990000     -71.49200000
C      -43.83660000     -31.18680000     -70.60670000
H      -42.93870000     -30.60850000     -70.51460000
H      -44.24390000     -31.16530000     -69.58170000
C      -45.87530000     -32.95830000     -68.45780000
H      -46.02610000     -33.16900000     -67.39510000
H      -45.20310000     -32.05860000     -68.42630000
C      -44.96610000     -33.94000000     -69.13820000
C      -44.93020000     -35.24210000     -68.67130000
C      -44.03390000     -33.74160000     -70.24130000
H      -45.57640000     -35.65130000     -67.92530000
C      -43.39170000     -34.88100000     -70.63660000
C      -43.46590000     -32.61100000     -70.88090000
C      -42.51360000     -32.93960000     -71.88000000
S      -43.87540000     -36.21430000     -69.68570000
S      -42.35500000     -34.68360000     -72.07440000
H      -41.97210000     -32.27490000     -72.61130000
