40
Properties=species:S:1:pos:R:3 #=T CELL(abcABC):=T 1.889726e+02=T 90.00000=T Traj:=T positionsangstrom=T Step:=T 0=T Bead:=T pbc="F F F"
C      -47.65510000     -32.12480000     -74.36730000
C      -46.46870000     -32.56300000     -73.71490000
C      -46.56230000     -33.42380000     -72.60390000
C      -47.76640000     -33.89620000     -72.10470000
C      -48.93080000     -33.59060000     -72.85810000
C      -48.86060000     -32.74470000     -74.02890000
H      -47.54950000     -31.61370000     -75.35780000
H      -45.57830000     -33.73730000     -72.19840000
H      -49.79810000     -34.11170000     -72.52880000
H      -49.73560000     -32.43590000     -74.63680000
C      -47.82530000     -34.92970000     -71.00260000
H      -46.88790000     -35.50900000     -70.99170000
H      -48.61400000     -35.63430000     -71.17620000
C      -45.12300000     -32.14460000     -74.09730000
H      -44.47990000     -33.03740000     -74.09020000
H      -45.10240000     -31.85430000     -75.15660000
S      -48.19910000     -34.26340000     -69.35120000
S      -44.67180000     -30.63450000     -73.13230000
C      -47.22170000     -32.70070000     -69.38380000
H      -47.20700000     -32.28180000     -70.37040000
H      -47.74110000     -31.95080000     -68.77890000
C      -44.96040000     -30.93370000     -71.31040000
H      -45.53080000     -31.89080000     -71.22100000
H      -45.52640000     -30.03810000     -71.00130000
C      -43.54820000     -31.09610000     -70.51160000
H      -42.80690000     -30.41240000     -70.96980000
H      -43.66960000     -30.73070000     -69.53850000
C      -45.80040000     -32.97480000     -68.79770000
H      -45.94310000     -33.37040000     -67.77500000
H      -45.34170000     -31.96270000     -68.63810000
C      -44.89880000     -33.99270000     -69.45460000
C      -45.07300000     -35.35710000     -69.35040000
C      -43.76840000     -33.64110000     -70.24670000
H      -45.91070000     -35.81530000     -68.81380000
C      -43.12970000     -34.81820000     -70.75900000
C      -43.05560000     -32.49100000     -70.64930000
C      -41.82080000     -32.76090000     -71.25210000
S      -43.81520000     -36.28250000     -70.13370000
S      -41.53320000     -34.49180000     -71.36390000
H      -41.14210000     -32.06910000     -71.70470000
