40
Properties=species:S:1:pos:R:3 #=T CELL(abcABC):=T 1.889726e+02=T 90.00000=T Traj:=T positionsangstrom=T Step:=T 0=T Bead:=T pbc="F F F"
C      -47.38330000     -31.78260000     -74.31720000
C      -46.27420000     -32.47860000     -73.86010000
C      -46.38870000     -33.32100000     -72.75390000
C      -47.62730000     -33.65290000     -72.26970000
C      -48.75150000     -33.04380000     -72.84030000
C      -48.58390000     -32.00510000     -73.77240000
H      -47.35520000     -31.10960000     -75.27660000
H      -45.50140000     -33.81560000     -72.27250000
H      -49.69030000     -33.23950000     -72.38930000
H      -49.45170000     -31.60630000     -74.27310000
C      -47.68930000     -34.73740000     -71.23780000
H      -46.74330000     -35.19820000     -71.12700000
H      -48.45330000     -35.51150000     -71.62050000
C      -44.89050000     -32.14580000     -74.38310000
H      -44.19160000     -33.08250000     -74.33210000
H      -44.85330000     -31.92980000     -75.51280000
S      -48.24670000     -34.19830000     -69.51210000
S      -44.08790000     -30.69700000     -73.48710000
C      -47.27650000     -32.62620000     -69.32030000
H      -47.03480000     -32.29360000     -70.32410000
H      -47.85790000     -31.82760000     -68.74010000
C      -44.51860000     -30.63130000     -71.72710000
H      -45.41760000     -31.08780000     -71.53310000
H      -44.70900000     -29.58970000     -71.38690000
C      -43.42590000     -31.25660000     -70.76670000
H      -42.48810000     -30.77310000     -71.01400000
H      -43.72670000     -31.11210000     -69.69700000
C      -45.86330000     -32.85540000     -68.53320000
H      -46.16120000     -33.24320000     -67.56670000
H      -45.46110000     -31.91980000     -68.35580000
C      -44.94880000     -33.86950000     -69.08220000
C      -45.08560000     -35.15300000     -68.53250000
C      -44.00030000     -33.83330000     -70.12350000
H      -45.72850000     -35.55010000     -67.70890000
C      -43.49590000     -35.08210000     -70.44670000
C      -43.30310000     -32.83220000     -70.89610000
C      -42.29290000     -33.34510000     -71.70840000
S      -44.00640000     -36.32440000     -69.28290000
S      -42.19620000     -35.11560000     -71.65540000
H      -41.59990000     -32.71930000     -72.27390000
