40
Properties=species:S:1:pos:R:3 #=T CELL(abcABC):=T 1.889726e+02=T 90.00000=T Traj:=T positionsangstrom=T Step:=T 0=T Bead:=T pbc="F F F"
C      -47.51330000     -32.20890000     -74.23160000
C      -46.32220000     -32.69790000     -73.59540000
C      -46.49170000     -33.72070000     -72.57910000
C      -47.74730000     -34.10270000     -72.16600000
C      -48.90800000     -33.55770000     -72.76920000
C      -48.78560000     -32.65040000     -73.78920000
H      -47.43040000     -31.27550000     -74.81300000
H      -45.56330000     -34.09220000     -72.08100000
H      -49.84550000     -33.82220000     -72.19850000
H      -49.54320000     -32.09750000     -74.40980000
C      -47.91360000     -35.06680000     -71.04780000
H      -46.98470000     -35.64670000     -70.81960000
H      -48.71080000     -35.77280000     -71.16340000
C      -44.97340000     -32.12350000     -74.03350000
H      -44.23800000     -32.83340000     -73.71490000
H      -44.95510000     -31.90270000     -75.18040000
S      -48.19200000     -34.21390000     -69.39850000
S      -44.47930000     -30.41610000     -73.38880000
C      -47.15060000     -32.74490000     -69.18200000
H      -46.97030000     -32.23810000     -70.14090000
H      -47.71650000     -32.11420000     -68.43820000
C      -44.90210000     -30.61100000     -71.57750000
H      -45.75420000     -31.22450000     -71.46720000
H      -45.22170000     -29.67230000     -71.13190000
C      -43.67290000     -31.08360000     -70.73840000
H      -42.84910000     -30.36720000     -70.80110000
H      -43.96820000     -30.99550000     -69.69790000
C      -45.72200000     -32.92250000     -68.53290000
H      -45.83630000     -33.35380000     -67.50910000
H      -45.22440000     -31.98390000     -68.46250000
C      -44.82660000     -33.96780000     -69.26600000
C      -45.09630000     -35.30260000     -69.08370000
C      -43.73720000     -33.70680000     -70.18000000
H      -45.89950000     -35.65970000     -68.52600000
C      -43.20140000     -34.88740000     -70.63040000
C      -43.18370000     -32.55660000     -70.79560000
C      -42.04630000     -32.86490000     -71.55580000
S      -44.00090000     -36.27900000     -69.98410000
S      -41.66270000     -34.57790000     -71.55740000
H      -41.45020000     -32.23080000     -72.13770000
