40
Properties=species:S:1:pos:R:3 #=T CELL(abcABC):=T 1.889726e+02=T 90.00000=T Traj:=T positionsangstrom=T Step:=T 0=T Bead:=T pbc="F F F"
C      -43.75440000     -36.65250000     -69.08840000
C      -43.99310000     -36.48680000     -70.48460000
C      -45.31340000     -36.30340000     -70.93780000
C      -46.42390000     -36.50990000     -70.12190000
C      -46.15320000     -36.79190000     -68.76180000
C      -44.86740000     -36.77580000     -68.26520000
H      -42.76780000     -36.69570000     -68.69360000
H      -45.40630000     -36.41890000     -72.03020000
H      -47.01410000     -37.07060000     -68.08080000
H      -44.77620000     -37.01840000     -67.16870000
C      -47.87590000     -36.45350000     -70.59970000
H      -48.39640000     -35.87820000     -69.84520000
H      -48.19070000     -37.50700000     -70.51690000
C      -42.83190000     -36.42540000     -71.47010000
H      -42.13890000     -37.21110000     -71.31980000
H      -43.19070000     -36.52750000     -72.48640000
S      -48.42660000     -35.73160000     -72.18550000
S      -41.71150000     -34.92840000     -71.32260000
C      -48.19460000     -33.89560000     -72.01430000
H      -48.82040000     -33.52260000     -72.85430000
H      -48.70720000     -33.49210000     -71.09570000
C      -42.84700000     -33.44640000     -71.13260000
H      -42.45690000     -32.83830000     -70.43660000
H      -43.79980000     -33.71030000     -70.69600000
C      -43.19520000     -32.72030000     -72.44740000
H      -42.27790000     -32.47470000     -72.99070000
H      -43.78420000     -33.34620000     -73.05730000
C      -46.76250000     -33.45730000     -72.02610000
H      -46.25880000     -33.78470000     -72.93280000
H      -46.22380000     -33.93830000     -71.15360000
C      -46.63990000     -31.92530000     -71.99760000
C      -47.70260000     -31.11540000     -71.66810000
C      -45.37080000     -31.18760000     -72.03640000
H      -48.73800000     -31.32590000     -71.30270000
C      -45.61450000     -29.80720000     -71.80120000
C      -43.90580000     -31.34930000     -72.26970000
C      -43.14970000     -30.20620000     -72.12020000
S      -47.28830000     -29.41000000     -71.59700000
S      -44.16500000     -28.77860000     -71.77520000
H      -42.15700000     -30.15100000     -72.44690000
