40
Properties=species:S:1:pos:R:3 #=T CELL(abcABC):=T 1.889726e+02=T 90.00000=T Traj:=T positionsangstrom=T Step:=T 0=T Bead:=T pbc="F F F"
C      -43.96410000     -36.51890000     -69.09950000
C      -44.07390000     -36.33510000     -70.49720000
C      -45.40790000     -36.40150000     -71.07790000
C      -46.51130000     -36.53040000     -70.25510000
C      -46.29640000     -36.76410000     -68.89240000
C      -45.05200000     -36.74810000     -68.33760000
H      -42.97110000     -36.49300000     -68.68130000
H      -45.51370000     -35.99970000     -72.13000000
H      -47.18210000     -36.89020000     -68.20610000
H      -44.92620000     -36.85890000     -67.29510000
C      -47.95630000     -36.40300000     -70.70460000
H      -48.61890000     -35.85930000     -70.10630000
H      -48.41530000     -37.42330000     -70.76670000
C      -42.91680000     -36.11050000     -71.40510000
H      -42.30170000     -37.07350000     -71.39780000
H      -43.31390000     -36.02730000     -72.45940000
S      -48.10820000     -35.83290000     -72.43410000
S      -41.75960000     -34.67150000     -71.03280000
C      -48.07630000     -34.00460000     -72.18060000
H      -48.65970000     -33.57410000     -73.01570000
H      -48.62510000     -33.71510000     -71.29400000
C      -43.06330000     -33.43500000     -70.92370000
H      -42.62110000     -32.57320000     -70.30620000
H      -43.96010000     -33.95960000     -70.38960000
C      -43.44180000     -32.92220000     -72.28080000
H      -42.57690000     -32.92330000     -72.97730000
H      -44.21270000     -33.63060000     -72.78160000
C      -46.70030000     -33.40290000     -72.06580000
H      -46.03920000     -33.75990000     -72.95990000
H      -46.18890000     -33.82870000     -71.22440000
C      -46.60840000     -31.91620000     -71.98940000
C      -47.69160000     -31.10550000     -71.85580000
C      -45.34710000     -31.20580000     -71.94850000
H      -48.70480000     -31.44490000     -71.90600000
C      -45.55480000     -29.80750000     -71.66690000
C      -43.98560000     -31.55990000     -72.12800000
C      -43.12900000     -30.49060000     -71.96220000
S      -47.22310000     -29.37480000     -71.64040000
S      -44.00210000     -28.92320000     -71.73760000
H      -42.05440000     -30.53570000     -72.00280000
