40
Properties=species:S:1:pos:R:3 #=T CELL(abcABC):=T 1.889726e+02=T 90.00000=T Traj:=T positionsangstrom=T Step:=T 0=T Bead:=T pbc="F F F"
C      -46.96270000     -31.97530000     -74.31920000
C      -46.02750000     -32.87520000     -73.76650000
C      -46.47130000     -33.79010000     -72.80280000
C      -47.74380000     -33.67560000     -72.20740000
C      -48.61760000     -32.66430000     -72.73320000
C      -48.26020000     -31.84960000     -73.80560000
H      -46.62930000     -31.40220000     -75.11400000
H      -45.70420000     -34.40430000     -72.31570000
H      -49.62010000     -32.39580000     -72.45050000
H      -49.11260000     -31.23260000     -74.17270000
C      -48.21050000     -34.62330000     -71.07200000
H      -47.50040000     -35.45200000     -70.99120000
H      -49.28180000     -34.97990000     -71.26410000
C      -44.62260000     -32.78200000     -74.16600000
H      -43.94220000     -33.59780000     -73.71840000
H      -44.46200000     -32.75710000     -75.24350000
S      -48.42680000     -33.71780000     -69.42580000
S      -43.87110000     -31.04310000     -73.72400000
C      -47.03190000     -32.37980000     -69.52060000
H      -46.65610000     -32.50600000     -70.52930000
H      -47.42470000     -31.43250000     -69.35310000
C      -44.53560000     -30.73640000     -71.92240000
H      -45.48960000     -31.24240000     -71.92080000
H      -44.63680000     -29.63260000     -71.80580000
C      -43.67400000     -31.28460000     -70.84950000
H      -42.68880000     -30.75410000     -70.78330000
H      -44.20340000     -30.98630000     -69.94240000
C      -45.91070000     -32.66140000     -68.57670000
H      -46.21950000     -32.72150000     -67.56810000
H      -45.24440000     -31.84930000     -68.56980000
C      -45.12220000     -33.86290000     -69.09510000
C      -45.36820000     -35.12600000     -68.69820000
C      -43.98490000     -33.78830000     -70.02950000
H      -46.18050000     -35.38760000     -68.05440000
C      -43.44290000     -35.03290000     -70.32300000
C      -43.29860000     -32.76520000     -70.81050000
C      -42.28150000     -33.29240000     -71.56190000
S      -44.23220000     -36.31040000     -69.43320000
S      -42.08720000     -35.07450000     -71.44920000
H      -41.66100000     -32.78790000     -72.30390000
