40
Properties=species:S:1:pos:R:3 #=T CELL(abcABC):=T 1.889726e+02=T 90.00000=T Traj:=T positionsangstrom=T Step:=T 0=T Bead:=T pbc="F F F"
C      -46.88790000     -32.03380000     -74.41740000
C      -45.94050000     -32.86120000     -73.77930000
C      -46.40910000     -33.66110000     -72.73240000
C      -47.70700000     -33.59260000     -72.11900000
C      -48.61650000     -32.77120000     -72.81680000
C      -48.19390000     -31.98910000     -73.94810000
H      -46.62610000     -31.40440000     -75.33220000
H      -45.74140000     -34.30330000     -72.21830000
H      -49.62630000     -32.55060000     -72.47850000
H      -48.82700000     -31.28560000     -74.39230000
C      -48.07670000     -34.44430000     -70.95130000
H      -47.22060000     -35.11740000     -70.64690000
H      -48.98530000     -35.00480000     -71.18880000
C      -44.56550000     -32.85680000     -74.29150000
H      -44.09840000     -33.80370000     -74.05050000
H      -44.58830000     -32.96670000     -75.40620000
S      -48.55910000     -33.42840000     -69.49030000
S      -43.54420000     -31.32350000     -73.71600000
C      -47.21690000     -32.17640000     -69.45480000
H      -46.89970000     -31.97300000     -70.44720000
H      -47.66610000     -31.20110000     -68.99500000
C      -44.20190000     -30.90620000     -72.04770000
H      -45.26050000     -31.22300000     -72.00000000
H      -44.32280000     -29.82510000     -72.14300000
C      -43.37320000     -31.33850000     -70.83870000
H      -42.41280000     -30.81030000     -70.81930000
H      -43.78450000     -30.94110000     -69.89450000
C      -45.93060000     -32.50120000     -68.66040000
H      -46.22450000     -32.69230000     -67.69070000
H      -45.26870000     -31.63950000     -68.74130000
C      -45.18150000     -33.72130000     -69.16120000
C      -45.57100000     -34.99620000     -68.73890000
C      -44.17230000     -33.76960000     -70.20440000
H      -46.34330000     -35.16240000     -68.00670000
C      -43.65620000     -35.10160000     -70.34810000
C      -43.18420000     -32.85340000     -70.77280000
C      -42.07320000     -33.48530000     -71.28320000
S      -44.58080000     -36.23230000     -69.41280000
S      -42.20810000     -35.21990000     -71.29390000
H      -41.26190000     -33.02420000     -71.79570000
