40
Properties=species:S:1:pos:R:3 #=T CELL(abcABC):=T 1.889726e+02=T 90.00000=T Traj:=T positionsangstrom=T Step:=T 0=T Bead:=T pbc="F F F"
C      -46.86420000     -32.01240000     -74.46320000
C      -45.98900000     -32.87730000     -73.82050000
C      -46.38270000     -33.48350000     -72.62430000
C      -47.68710000     -33.50020000     -72.20200000
C      -48.56610000     -32.62380000     -72.84270000
C      -48.14230000     -31.89240000     -73.93280000
H      -46.58880000     -31.34030000     -75.29900000
H      -45.66050000     -34.12130000     -72.11110000
H      -49.54610000     -32.54830000     -72.55220000
H      -48.92470000     -31.24410000     -74.26630000
C      -48.16050000     -34.44670000     -71.03660000
H      -47.38380000     -35.13070000     -70.80290000
H      -49.01210000     -35.08860000     -71.22360000
C      -44.51340000     -32.89170000     -74.13220000
H      -44.00450000     -33.62010000     -73.52900000
H      -44.34800000     -33.01670000     -75.17310000
S      -48.54350000     -33.62430000     -69.45260000
S      -43.77590000     -31.28570000     -73.73580000
C      -47.37460000     -32.23090000     -69.08920000
H      -47.36320000     -31.68940000     -70.05030000
H      -47.91740000     -31.52640000     -68.43670000
C      -44.39210000     -30.98540000     -72.06000000
H      -45.23560000     -31.65770000     -71.88800000
H      -44.73210000     -29.91580000     -71.90340000
C      -43.41260000     -31.28530000     -70.90730000
H      -42.44900000     -30.93460000     -71.23890000
H      -43.85140000     -30.85190000     -69.99090000
C      -45.93970000     -32.59990000     -68.53590000
H      -46.14420000     -32.84340000     -67.40410000
H      -45.32220000     -31.72120000     -68.78890000
C      -45.21820000     -33.81830000     -69.17520000
C      -45.47280000     -35.09970000     -68.74700000
C      -43.99520000     -33.74510000     -69.98730000
H      -46.23690000     -35.33430000     -68.08280000
C      -43.44550000     -34.98160000     -70.20630000
C      -43.24500000     -32.79440000     -70.84610000
C      -42.30410000     -33.37380000     -71.65060000
S      -44.34930000     -36.29740000     -69.46420000
S      -42.13460000     -35.13630000     -71.41610000
H      -41.52270000     -32.87450000     -72.21090000
