40
Properties=species:S:1:pos:R:3 #=T CELL(abcABC):=T 1.889726e+02=T 90.00000=T Traj:=T positionsangstrom=T Step:=T 0=T Bead:=T pbc="F F F"
C      -46.77660000     -30.07720000     -72.46680000
C      -47.56340000     -31.12850000     -72.92690000
C      -46.95240000     -31.94940000     -73.93170000
C      -45.60080000     -31.88160000     -74.21430000
C      -44.81810000     -30.88080000     -73.61200000
C      -45.46530000     -29.92740000     -72.81120000
H      -47.15470000     -29.37060000     -71.75960000
H      -47.62100000     -32.68280000     -74.33850000
H      -43.75330000     -30.71730000     -73.76110000
H      -44.88750000     -29.09950000     -72.41500000
C      -44.87990000     -32.85660000     -75.10180000
H      -43.88990000     -32.52200000     -75.31210000
H      -45.32950000     -32.90620000     -76.08460000
C      -48.99110000     -31.30820000     -72.50000000
H      -49.33730000     -30.48920000     -71.84900000
H      -49.60120000     -31.30780000     -73.36720000
S      -44.77640000     -34.69060000     -74.53960000
S      -49.14310000     -32.98660000     -71.54890000
C      -43.73080000     -34.49330000     -72.97070000
H      -42.66320000     -34.35960000     -73.23540000
H      -44.10780000     -33.61570000     -72.45500000
C      -47.79360000     -32.91660000     -70.35670000
H      -48.01590000     -33.40030000     -69.35100000
H      -47.61030000     -31.92310000     -70.07920000
C      -46.44050000     -33.57560000     -70.80860000
H      -46.67440000     -34.51310000     -71.34590000
H      -45.97240000     -32.92620000     -71.55060000
C      -43.92770000     -35.67900000     -72.03850000
H      -43.31440000     -36.55940000     -72.52850000
H      -44.95660000     -36.00590000     -71.85510000
C      -43.42920000     -35.41030000     -70.60820000
C      -42.30270000     -35.86950000     -70.08230000
C      -44.15710000     -34.46010000     -69.72580000
H      -41.75100000     -36.68310000     -70.49890000
C      -43.52180000     -34.46080000     -68.51370000
C      -45.46540000     -33.78550000     -69.67190000
C      -45.61310000     -33.16970000     -68.45860000
S      -42.02700000     -35.32550000     -68.45800000
S      -44.33750000     -33.45720000     -67.34610000
H      -46.29130000     -32.35520000     -68.28180000
