40
Properties=species:S:1:pos:R:3 #=T CELL(abcABC):=T 1.889726e+02=T 90.00000=T Traj:=T positionsangstrom=T Step:=T 0=T Bead:=T pbc="F F F"
C      -46.80520000     -30.01570000     -72.55350000
C      -47.56120000     -31.10580000     -72.92580000
C      -46.89240000     -32.04560000     -73.79510000
C      -45.54370000     -31.91510000     -74.12130000
C      -44.79520000     -30.84630000     -73.57840000
C      -45.41010000     -29.93440000     -72.70950000
H      -47.16710000     -29.19540000     -71.96570000
H      -47.45340000     -32.85400000     -74.27010000
H      -43.69310000     -30.79200000     -73.73620000
H      -44.94830000     -28.93580000     -72.48700000
C      -44.95030000     -32.91960000     -75.16770000
H      -43.89750000     -32.64090000     -75.43250000
H      -45.57710000     -33.06290000     -76.05440000
C      -48.97090000     -31.30290000     -72.42050000
H      -49.14530000     -30.62350000     -71.57360000
H      -49.65340000     -31.17110000     -73.33130000
S      -44.82650000     -34.60810000     -74.46650000
S      -49.04840000     -32.97830000     -71.83380000
C      -43.80060000     -34.44400000     -72.95760000
H      -42.69740000     -34.40280000     -73.06430000
H      -43.97450000     -33.40530000     -72.62340000
C      -47.72770000     -33.04650000     -70.40760000
H      -48.30720000     -33.46890000     -69.58830000
H      -47.58880000     -31.95840000     -70.21490000
C      -46.38950000     -33.77660000     -70.75220000
H      -46.57220000     -34.77420000     -71.09240000
H      -45.95360000     -33.30580000     -71.63350000
C      -44.06070000     -35.60200000     -71.97870000
H      -43.54380000     -36.56950000     -72.38050000
H      -45.06980000     -35.86320000     -72.03350000
C      -43.49280000     -35.24810000     -70.61140000
C      -42.34630000     -35.78740000     -70.17630000
C      -44.17010000     -34.45440000     -69.64880000
H      -41.73130000     -36.43110000     -70.74990000
C      -43.47080000     -34.35620000     -68.47220000
C      -45.44480000     -33.82480000     -69.59930000
C      -45.69930000     -33.10990000     -68.41920000
S      -41.98440000     -35.31470000     -68.55690000
S      -44.36380000     -33.56990000     -67.21810000
H      -46.68090000     -32.76560000     -68.04080000
