40
Properties=species:S:1:pos:R:3 #=T CELL(abcABC):=T 1.889726e+02=T 90.00000=T Traj:=T positionsangstrom=T Step:=T 0=T Bead:=T pbc="F F F"
C      -44.44320000     -35.99110000     -68.91460000
C      -44.19670000     -36.33490000     -70.26030000
C      -45.25480000     -36.60200000     -71.11750000
C      -46.58750000     -36.51790000     -70.69770000
C      -46.79030000     -36.11570000     -69.34550000
C      -45.74710000     -35.76340000     -68.48050000
H      -43.57160000     -35.66080000     -68.35780000
H      -44.92840000     -36.97270000     -72.13340000
H      -47.74090000     -35.99610000     -68.90100000
H      -45.89370000     -35.48680000     -67.39800000
C      -47.76570000     -36.84470000     -71.62030000
H      -48.75690000     -36.62930000     -71.24790000
H      -47.75390000     -37.91750000     -71.91560000
C      -42.81130000     -36.41410000     -70.76210000
H      -42.29980000     -37.21560000     -70.40040000
H      -42.84640000     -36.41100000     -71.85910000
S      -47.62670000     -35.95380000     -73.13100000
S      -41.80620000     -34.86430000     -70.30760000
C      -47.64250000     -34.25740000     -72.45990000
H      -48.40810000     -33.79300000     -73.14040000
H      -48.06130000     -34.27740000     -71.40410000
C      -42.98700000     -33.46130000     -70.35530000
H      -42.47860000     -32.86000000     -69.63880000
H      -43.90970000     -33.70380000     -69.87680000
C      -43.09410000     -32.68540000     -71.73090000
H      -42.07940000     -32.45930000     -72.09460000
H      -43.46830000     -33.26120000     -72.51020000
C      -46.33720000     -33.57450000     -72.40330000
H      -45.86260000     -33.67760000     -73.35700000
H      -45.76240000     -34.13170000     -71.63360000
C      -46.46520000     -32.09820000     -72.07260000
C      -47.58730000     -31.34150000     -72.28160000
C      -45.28800000     -31.22300000     -71.79250000
H      -48.58770000     -31.61960000     -72.52590000
C      -45.68880000     -29.91060000     -71.62170000
C      -43.79640000     -31.34150000     -71.64090000
C      -43.19900000     -30.12800000     -71.55990000
S      -47.39090000     -29.62960000     -71.86400000
S      -44.37770000     -28.76620000     -71.60220000
H      -42.15380000     -29.99740000     -71.43150000
