40
Properties=species:S:1:pos:R:3 #=T CELL(abcABC):=T 1.889726e+02=T 90.00000=T Traj:=T positionsangstrom=T Step:=T 0=T Bead:=T pbc="F F F"
C      -45.74890000     -32.29810000     -74.64200000
C      -45.20620000     -33.33420000     -73.84480000
C      -46.00880000     -33.97860000     -72.93620000
C      -47.33740000     -33.57080000     -72.77670000
C      -47.92410000     -32.63540000     -73.65640000
C      -47.11700000     -32.00630000     -74.62130000
H      -45.09790000     -31.82460000     -75.43460000
H      -45.62760000     -34.70290000     -72.24030000
H      -48.91810000     -32.19230000     -73.39280000
H      -47.46920000     -31.30080000     -75.37130000
C      -48.13550000     -34.03670000     -71.59460000
H      -47.55410000     -34.76110000     -70.98000000
H      -49.05500000     -34.60560000     -71.87990000
C      -43.71880000     -33.57450000     -73.88020000
H      -43.54770000     -34.50030000     -73.27710000
H      -43.27220000     -33.78050000     -74.86080000
S      -48.72710000     -32.56170000     -70.64080000
S      -42.63210000     -32.06850000     -73.47660000
C      -47.14110000     -31.62860000     -70.65770000
H      -46.63830000     -32.00210000     -71.58670000
H      -47.45470000     -30.60220000     -70.61240000
C      -43.53130000     -31.29990000     -72.11700000
H      -44.58090000     -31.52090000     -72.20960000
H      -43.36240000     -30.24970000     -72.16390000
C      -43.05660000     -31.72060000     -70.70180000
H      -41.96960000     -31.56980000     -70.64990000
H      -43.53150000     -31.14090000     -69.90000000
C      -46.39400000     -31.81270000     -69.34570000
H      -47.16820000     -31.68650000     -68.59280000
H      -45.60880000     -31.07920000     -69.22170000
C      -45.84170000     -33.26470000     -69.18940000
C      -46.68740000     -34.22090000     -68.74440000
C      -44.54000000     -33.71550000     -69.68700000
H      -47.73040000     -34.03500000     -68.26960000
C      -44.31770000     -35.04590000     -69.38920000
C      -43.36720000     -33.13830000     -70.36320000
C      -42.39450000     -34.06940000     -70.63370000
S      -45.85690000     -35.79700000     -68.73840000
S      -42.76870000     -35.65540000     -70.05580000
H      -41.48910000     -33.76610000     -71.06910000
