40
Properties=species:S:1:pos:R:3 #=T CELL(abcABC):=T 1.889726e+02=T 90.00000=T Traj:=T positionsangstrom=T Step:=T 0=T Bead:=T pbc="F F F"
C      -44.47120000     -35.92910000     -68.98920000
C      -44.25520000     -36.31970000     -70.30790000
C      -45.34650000     -36.70660000     -71.09140000
C      -46.64820000     -36.65380000     -70.60940000
C      -46.85370000     -36.26500000     -69.33570000
C      -45.78260000     -35.93190000     -68.52540000
H      -43.66060000     -35.46950000     -68.42880000
H      -45.08020000     -36.93870000     -72.11010000
H      -47.81670000     -36.28560000     -68.85340000
H      -46.02270000     -35.74550000     -67.47810000
C      -47.77980000     -37.06230000     -71.54440000
H      -48.76380000     -37.06190000     -71.06260000
H      -47.57920000     -38.13320000     -71.79680000
C      -42.92580000     -36.18460000     -70.98470000
H      -42.29500000     -37.10360000     -70.88020000
H      -43.03540000     -36.16180000     -72.11840000
S      -47.63630000     -35.90300000     -73.05480000
S      -41.81530000     -34.85750000     -70.41620000
C      -47.71190000     -34.16780000     -72.41130000
H      -48.14780000     -33.61780000     -73.23870000
H      -48.36530000     -34.13790000     -71.55120000
C      -42.91420000     -33.34970000     -70.35890000
H      -42.53480000     -32.55780000     -69.56430000
H      -43.91520000     -33.65270000     -70.09940000
C      -43.06880000     -32.70590000     -71.79080000
H      -42.10180000     -32.59780000     -72.30260000
H      -43.65880000     -33.46580000     -72.42510000
C      -46.37360000     -33.56200000     -72.20460000
H      -45.68480000     -33.71400000     -73.05460000
H      -45.91080000     -34.13120000     -71.38840000
C      -46.47880000     -32.04170000     -71.96150000
C      -47.66180000     -31.32830000     -72.00900000
C      -45.25680000     -31.17910000     -71.86110000
H      -48.71460000     -31.67660000     -71.74070000
C      -45.59510000     -29.82850000     -71.84220000
C      -43.85350000     -31.40510000     -71.72590000
C      -43.20310000     -30.21420000     -71.59690000
S      -47.34060000     -29.53760000     -71.96220000
S      -44.19420000     -28.81520000     -71.46860000
H      -42.18120000     -30.07870000     -71.43590000
