40
Properties=species:S:1:pos:R:3 #=T CELL(abcABC):=T 1.889726e+02=T 90.00000=T Traj:=T positionsangstrom=T Step:=T 0=T Bead:=T pbc="F F F"
C      -44.97330000     -35.61050000     -68.56250000
C      -44.23100000     -36.02130000     -69.71310000
C      -44.97970000     -36.52180000     -70.81910000
C      -46.39780000     -36.56370000     -70.77400000
C      -47.12390000     -36.24230000     -69.61880000
C      -46.39610000     -35.68850000     -68.54690000
H      -44.53280000     -35.12900000     -67.68280000
H      -44.51670000     -37.00590000     -71.73000000
H      -48.16230000     -36.04240000     -69.55510000
H      -46.96890000     -35.42940000     -67.59470000
C      -47.22760000     -37.07510000     -71.95430000
H      -48.36170000     -36.98180000     -71.79990000
H      -47.08170000     -38.18960000     -72.08240000
C      -42.71040000     -35.97220000     -69.81190000
H      -42.26990000     -36.62470000     -69.07570000
H      -42.35610000     -36.34220000     -70.75570000
S      -46.93680000     -36.27180000     -73.59110000
S      -41.97590000     -34.24930000     -69.56500000
C      -47.40000000     -34.48680000     -73.36090000
H      -47.82060000     -34.10360000     -74.31270000
H      -48.17760000     -34.43950000     -72.54120000
C      -43.24060000     -33.11600000     -70.22710000
H      -42.86050000     -32.25950000     -69.62090000
H      -44.17820000     -33.55750000     -69.91610000
C      -43.18160000     -32.70410000     -71.67790000
H      -42.07880000     -32.52960000     -71.89750000
H      -43.48040000     -33.40200000     -72.44650000
C      -46.16370000     -33.72010000     -72.75980000
H      -45.44250000     -33.60000000     -73.58910000
H      -45.69170000     -34.31010000     -71.91760000
C      -46.39780000     -32.26690000     -72.22770000
C      -47.59020000     -31.64680000     -72.13500000
C      -45.33810000     -31.31160000     -72.16730000
H      -48.61850000     -32.08680000     -72.40960000
C      -45.82680000     -29.96020000     -72.01020000
C      -43.92710000     -31.38610000     -71.84520000
C      -43.32780000     -30.17010000     -71.54920000
S      -47.52720000     -29.90250000     -71.82730000
S      -44.46960000     -28.84260000     -71.66530000
H      -42.29650000     -30.05420000     -71.37880000
