40
Properties=species:S:1:pos:R:3 #=T CELL(abcABC):=T 1.889726e+02=T 90.00000=T Traj:=T positionsangstrom=T Step:=T 0=T Bead:=T pbc="F F F"
C      -44.51070000     -35.97160000     -68.71360000
C      -44.18290000     -36.36770000     -70.00710000
C      -45.17320000     -36.70270000     -70.93410000
C      -46.50000000     -36.49990000     -70.64800000
C      -46.86060000     -36.08740000     -69.32020000
C      -45.85720000     -35.80690000     -68.44810000
H      -43.81550000     -35.94890000     -67.88560000
H      -44.78240000     -36.93740000     -71.91840000
H      -47.88430000     -35.89940000     -69.13550000
H      -46.10540000     -35.36890000     -67.49240000
C      -47.63410000     -36.92230000     -71.55380000
H      -48.62000000     -36.81270000     -71.04070000
H      -47.54700000     -37.92440000     -71.88010000
C      -42.74750000     -36.26220000     -70.45900000
H      -42.14840000     -37.02850000     -69.84580000
H      -42.77440000     -36.55750000     -71.54800000
S      -47.71400000     -35.98520000     -73.22640000
S      -41.76700000     -34.68930000     -70.28040000
C      -47.66680000     -34.18290000     -72.78140000
H      -47.93070000     -33.68170000     -73.69500000
H      -48.38850000     -33.89910000     -72.10060000
C      -43.02900000     -33.32090000     -70.36790000
H      -42.73830000     -32.54890000     -69.60470000
H      -44.04810000     -33.73710000     -70.14100000
C      -43.14930000     -32.69840000     -71.77930000
H      -42.08260000     -32.58720000     -72.21250000
H      -43.71690000     -33.44760000     -72.30030000
C      -46.31480000     -33.58050000     -72.54270000
H      -45.71880000     -33.62790000     -73.48360000
H      -45.71860000     -34.12640000     -71.78190000
C      -46.37900000     -32.10710000     -72.17970000
C      -47.58570000     -31.42220000     -72.17470000
C      -45.27650000     -31.22730000     -71.97720000
H      -48.54920000     -31.76540000     -72.43630000
C      -45.66490000     -29.91750000     -71.75350000
C      -43.84200000     -31.36290000     -71.85730000
C      -43.17850000     -30.19650000     -71.60550000
S      -47.40920000     -29.70410000     -71.93740000
S      -44.35530000     -28.82800000     -71.45940000
H      -42.13960000     -30.02630000     -71.53400000
