40
Properties=species:S:1:pos:R:3 #=T CELL(abcABC):=T 1.889726e+02=T 90.00000=T Traj:=T positionsangstrom=T Step:=T 0=T Bead:=T pbc="F F F"
C      -44.07220000     -32.88090000     -74.85780000
C      -44.11070000     -33.62750000     -73.63620000
C      -45.35640000     -33.90650000     -72.93190000
C      -46.53540000     -33.42850000     -73.44080000
C      -46.46810000     -32.51960000     -74.58230000
C      -45.25970000     -32.28650000     -75.30140000
H      -43.17240000     -32.61790000     -75.31100000
H      -45.35470000     -34.53800000     -72.06620000
H      -47.43010000     -32.10460000     -74.86960000
H      -45.26770000     -31.60830000     -76.14080000
C      -47.84790000     -33.71760000     -72.76410000
H      -47.61200000     -34.50900000     -71.98090000
H      -48.65300000     -33.96010000     -73.46950000
C      -42.75500000     -33.99560000     -73.02350000
H      -42.92530000     -34.80980000     -72.30630000
H      -42.05860000     -34.23570000     -73.84520000
S      -48.55270000     -32.19580000     -71.91420000
S      -42.05120000     -32.48590000     -72.11630000
C      -47.06120000     -31.22510000     -71.35470000
H      -46.23650000     -31.43440000     -72.00250000
H      -47.38800000     -30.14480000     -71.44090000
C      -43.39210000     -31.56460000     -71.16960000
H      -44.33700000     -31.68240000     -71.74870000
H      -43.13990000     -30.53620000     -71.41970000
C      -43.48710000     -31.79290000     -69.67860000
H      -42.48290000     -31.53900000     -69.37700000
H      -44.13330000     -31.06520000     -69.15270000
C      -46.87920000     -31.50810000     -69.81040000
H      -47.84220000     -31.17630000     -69.45370000
H      -46.10710000     -30.80240000     -69.43160000
C      -46.59620000     -32.96850000     -69.47330000
C      -47.58820000     -33.90910000     -69.25140000
C      -45.27530000     -33.56650000     -69.47400000
H      -48.68090000     -33.78260000     -69.37140000
C      -45.35460000     -34.96900000     -69.38710000
C      -43.87090000     -33.25650000     -69.56330000
C      -43.03130000     -34.30600000     -69.52100000
S      -46.97190000     -35.52360000     -69.17580000
S      -43.89670000     -35.86080000     -69.49920000
H      -41.94270000     -34.37440000     -69.63150000
