40
Properties=species:S:1:pos:R:3 #=T CELL(abcABC):=T 1.889726e+02=T 90.00000=T Traj:=T positionsangstrom=T Step:=T 0=T Bead:=T pbc="F F F"
C      -43.88730000     -32.62340000     -74.72290000
C      -43.96630000     -33.50530000     -73.61080000
C      -45.15180000     -33.86950000     -73.05590000
C      -46.37760000     -33.31860000     -73.50350000
C      -46.38610000     -32.45350000     -74.56040000
C      -45.11320000     -32.16590000     -75.18720000
H      -42.94000000     -32.41810000     -75.20960000
H      -45.22720000     -34.37350000     -72.12780000
H      -47.26400000     -32.14120000     -75.05830000
H      -45.11610000     -31.64910000     -76.07800000
C      -47.64330000     -33.75200000     -72.76800000
H      -47.48430000     -34.43860000     -71.98040000
H      -48.39580000     -34.25060000     -73.42990000
C      -42.72530000     -34.01140000     -72.91870000
H      -42.88870000     -34.81380000     -72.16030000
H      -41.97270000     -34.37630000     -73.62730000
S      -48.55600000     -32.20660000     -72.10790000
S      -41.82170000     -32.65800000     -72.03630000
C      -47.29830000     -31.19980000     -71.21400000
H      -46.47250000     -31.14800000     -71.87640000
H      -47.70380000     -30.15170000     -71.18070000
C      -43.17460000     -31.58080000     -71.43420000
H      -44.03550000     -31.99220000     -71.93150000
H      -43.07550000     -30.52190000     -71.73330000
C      -43.48060000     -31.81390000     -69.97470000
H      -42.61260000     -31.75570000     -69.28160000
H      -44.21760000     -31.15650000     -69.61720000
C      -46.88390000     -31.52110000     -69.76650000
H      -47.59680000     -31.12220000     -69.05600000
H      -45.93620000     -31.03450000     -69.50410000
C      -46.74100000     -33.00020000     -69.50770000
C      -47.78380000     -33.88160000     -69.27890000
C      -45.45320000     -33.64640000     -69.43770000
H      -48.79290000     -33.54810000     -69.12610000
C      -45.52670000     -35.04560000     -69.30100000
C      -44.04060000     -33.25020000     -69.71020000
C      -43.18600000     -34.29280000     -69.63090000
S      -47.18970000     -35.54640000     -69.13400000
S      -43.97920000     -35.83600000     -69.30000000
H      -42.13460000     -34.19280000     -69.78230000
