40
Properties=species:S:1:pos:R:3 #=T CELL(abcABC):=T 1.889726e+02=T 90.00000=T Traj:=T positionsangstrom=T Step:=T 0=T Bead:=T pbc="F F F"
C      -44.84630000     -32.67760000     -75.22360000
C      -44.55220000     -33.23540000     -73.98440000
C      -45.70200000     -33.48850000     -73.15210000
C      -46.98800000     -33.16910000     -73.47570000
C      -47.25510000     -32.62030000     -74.76850000
C      -46.17260000     -32.38310000     -75.61330000
H      -43.92270000     -32.42120000     -75.75580000
H      -45.43730000     -33.87360000     -72.18570000
H      -48.25940000     -32.23540000     -75.01610000
H      -46.30060000     -31.90260000     -76.54870000
C      -48.16410000     -33.51060000     -72.54290000
H      -47.83680000     -34.29200000     -71.83980000
H      -49.03450000     -33.88430000     -73.05110000
C      -43.20710000     -33.49960000     -73.45310000
H      -43.12580000     -34.29660000     -72.70360000
H      -42.53070000     -33.60920000     -74.22990000
S      -48.73680000     -31.99120000     -71.60640000
S      -42.44710000     -31.91470000     -72.66180000
C      -47.13280000     -31.31640000     -70.78130000
H      -46.33470000     -31.34570000     -71.48900000
H      -47.29400000     -30.25130000     -70.51890000
C      -43.66770000     -31.44950000     -71.35430000
H      -44.69640000     -31.88660000     -71.50010000
H      -43.70470000     -30.36760000     -71.37240000
C      -43.22200000     -31.90460000     -69.92410000
H      -42.15310000     -31.74650000     -69.83840000
H      -43.68610000     -31.28860000     -69.13140000
C      -46.70420000     -32.03170000     -69.48720000
H      -47.49520000     -31.92330000     -68.74690000
H      -45.77200000     -31.50510000     -69.21090000
C      -46.21830000     -33.42680000     -69.48720000
C      -47.12440000     -34.43240000     -69.03210000
C      -44.89500000     -33.96420000     -69.53740000
H      -48.18190000     -34.26900000     -68.99370000
C      -44.83630000     -35.28970000     -69.16440000
C      -43.58130000     -33.40140000     -69.75930000
C      -42.53080000     -34.32720000     -69.73410000
S      -46.35120000     -36.01010000     -68.68440000
S      -43.16220000     -35.87430000     -69.31040000
H      -41.51870000     -34.25960000     -70.02930000
