40
Properties=species:S:1:pos:R:3 #=T CELL(abcABC):=T 1.889726e+02=T 90.00000=T Traj:=T positionsangstrom=T Step:=T 0=T Bead:=T pbc="F F F"
C      -43.73850000     -32.56930000     -74.67430000
C      -43.76440000     -33.41800000     -73.58210000
C      -45.03110000     -33.81860000     -73.01180000
C      -46.29150000     -33.32460000     -73.49650000
C      -46.24170000     -32.44080000     -74.59310000
C      -44.99550000     -32.13610000     -75.22220000
H      -42.78890000     -32.25120000     -75.12670000
H      -44.99690000     -34.61930000     -72.26590000
H      -47.09360000     -31.82890000     -74.89880000
H      -45.02470000     -31.35720000     -75.94440000
C      -47.65340000     -33.61200000     -72.86500000
H      -47.60980000     -34.33060000     -72.05830000
H      -48.31020000     -34.01420000     -73.66080000
C      -42.50520000     -33.97550000     -73.00200000
H      -42.66440000     -34.81010000     -72.31120000
H      -41.82620000     -34.35940000     -73.77280000
S      -48.56300000     -32.18820000     -72.20520000
S      -41.60010000     -32.69790000     -72.13900000
C      -47.30910000     -31.23050000     -71.18160000
H      -46.33220000     -31.60640000     -71.59170000
H      -47.40390000     -30.21740000     -71.45090000
C      -42.77770000     -31.51160000     -71.34530000
H      -43.52680000     -31.22160000     -72.08610000
H      -42.13900000     -30.66450000     -71.05660000
C      -43.52180000     -31.88660000     -70.02040000
H      -42.76770000     -31.72870000     -69.22360000
H      -44.20300000     -31.03600000     -70.00130000
C      -47.33100000     -31.64770000     -69.70000000
H      -48.37590000     -31.51710000     -69.29880000
H      -46.69400000     -31.00900000     -69.13020000
C      -46.88060000     -33.03890000     -69.53080000
C      -47.92450000     -33.94040000     -69.43860000
C      -45.54020000     -33.60750000     -69.57980000
H      -48.96090000     -33.72210000     -69.36060000
C      -45.66680000     -34.95790000     -69.27130000
C      -44.11900000     -33.26640000     -69.71610000
C      -43.29600000     -34.33580000     -69.45030000
S      -47.32470000     -35.54770000     -69.04580000
S      -44.17250000     -35.90960000     -69.15470000
H      -42.28530000     -34.27040000     -69.41740000
