40
Properties=species:S:1:pos:R:3 #=T CELL(abcABC):=T 1.889726e+02=T 90.00000=T Traj:=T positionsangstrom=T Step:=T 0=T Bead:=T pbc="F F F"
C      -44.30030000     -32.63490000     -74.83280000
C      -44.31150000     -33.41650000     -73.62880000
C      -45.49610000     -33.80020000     -72.97220000
C      -46.74210000     -33.51660000     -73.50010000
C      -46.78440000     -32.89310000     -74.78320000
C      -45.58050000     -32.45490000     -75.37470000
H      -43.44880000     -32.35200000     -75.33580000
H      -45.39850000     -34.33730000     -71.99750000
H      -47.81310000     -32.58960000     -75.16390000
H      -45.60390000     -31.91240000     -76.32510000
C      -47.96980000     -33.65690000     -72.65530000
H      -47.76060000     -34.40740000     -71.90680000
H      -48.76780000     -34.05190000     -73.21580000
C      -43.00000000     -33.76820000     -72.99110000
H      -43.15320000     -34.46880000     -72.17910000
H      -42.29020000     -34.27540000     -73.64090000
S      -48.61220000     -32.11150000     -71.90050000
S      -42.04210000     -32.31450000     -72.27540000
C      -47.12860000     -31.34140000     -71.03770000
H      -46.25090000     -31.51510000     -71.71620000
H      -47.23710000     -30.25200000     -71.13710000
C      -43.37980000     -31.44330000     -71.29460000
H      -44.30030000     -31.73760000     -71.84070000
H      -43.13350000     -30.38930000     -71.40220000
C      -43.37440000     -31.75650000     -69.71160000
H      -42.37710000     -31.65140000     -69.32970000
H      -43.89950000     -30.95570000     -69.08130000
C      -46.84890000     -31.68750000     -69.62050000
H      -47.68370000     -31.43010000     -68.93790000
H      -46.03900000     -31.02290000     -69.24990000
C      -46.46920000     -33.11720000     -69.33560000
C      -47.49790000     -34.02830000     -69.36900000
C      -45.14560000     -33.71170000     -69.40580000
H      -48.57410000     -33.80410000     -69.33580000
C      -45.20600000     -35.12460000     -69.39620000
C      -43.79110000     -33.23540000     -69.48050000
C      -42.88690000     -34.25100000     -69.42650000
S      -46.84690000     -35.67460000     -69.30600000
S      -43.58470000     -35.80250000     -69.43330000
H      -41.75810000     -34.07730000     -69.38110000
