40
Properties=species:S:1:pos:R:3 #=T CELL(abcABC):=T 1.889726e+02=T 90.00000=T Traj:=T positionsangstrom=T Step:=T 0=T Bead:=T pbc="F F F"
C      -47.75510000     -32.72210000     -74.21480000
C      -46.65190000     -33.53400000     -74.20570000
C      -46.80010000     -34.71800000     -73.46630000
C      -47.96010000     -35.21530000     -72.87980000
C      -49.03990000     -34.28640000     -72.87060000
C      -48.95620000     -33.06910000     -73.56300000
H      -47.77240000     -31.81600000     -74.73960000
H      -45.82940000     -35.25920000     -73.40140000
H      -49.89380000     -34.65840000     -72.36220000
H      -49.74920000     -32.30170000     -73.69610000
C      -47.98920000     -36.58040000     -72.23620000
H      -48.05060000     -37.36360000     -73.10830000
H      -48.98540000     -36.57160000     -71.73010000
C      -45.42860000     -33.33500000     -75.02460000
H      -44.58660000     -34.18600000     -74.90530000
H      -45.70090000     -33.43060000     -76.07090000
S      -46.49070000     -36.94860000     -71.22650000
S      -44.56620000     -31.74500000     -74.92160000
C      -45.99420000     -35.41100000     -70.16140000
H      -46.37630000     -34.49000000     -70.66400000
H      -46.32620000     -35.35460000     -69.15130000
C      -44.45220000     -31.35970000     -73.15130000
H      -45.45020000     -31.10570000     -72.73200000
H      -43.86660000     -30.37750000     -73.13500000
C      -43.80630000     -32.44600000     -72.30880000
H      -44.31350000     -33.45850000     -72.40560000
H      -42.76480000     -32.66470000     -72.78030000
C      -44.45420000     -35.36650000     -70.14600000
H      -44.12340000     -35.14350000     -71.11850000
H      -43.96600000     -36.37210000     -69.91770000
C      -44.00330000     -34.25060000     -69.20280000
C      -44.03090000     -34.43240000     -67.86350000
C      -43.78180000     -32.85260000     -69.61860000
H      -44.11410000     -35.39370000     -67.37390000
C      -43.65160000     -32.02220000     -68.46640000
C      -43.67530000     -32.01910000     -70.84390000
C      -43.56240000     -30.68850000     -70.50370000
S      -43.82990000     -32.93650000     -66.96090000
S      -43.61560000     -30.32710000     -68.79690000
H      -43.35710000     -29.87780000     -71.22180000
