40
Properties=species:S:1:pos:R:3 #=T CELL(abcABC):=T 1.889726e+02=T 90.00000=T Traj:=T positionsangstrom=T Step:=T 0=T Bead:=T pbc="F F F"
C      -42.70230000     -33.54440000     -73.92510000
C      -43.57060000     -34.06280000     -72.94580000
C      -44.94080000     -33.79030000     -73.01770000
C      -45.49900000     -33.11860000     -74.11700000
C      -44.65010000     -32.70670000     -75.19190000
C      -43.27330000     -32.92290000     -75.00550000
H      -41.65090000     -33.62230000     -73.73230000
H      -45.52230000     -34.36150000     -72.28110000
H      -45.11580000     -32.14090000     -76.01860000
H      -42.57560000     -32.61560000     -75.79720000
C      -46.97860000     -32.74130000     -74.04960000
H      -47.53470000     -33.43130000     -73.46420000
H      -47.32790000     -32.56480000     -75.06160000
C      -42.92080000     -34.95010000     -71.86960000
H      -43.75080000     -35.36370000     -71.23660000
H      -42.31330000     -35.81250000     -72.19760000
S      -47.18750000     -31.15790000     -73.15630000
S      -41.78370000     -34.17070000     -70.74180000
C      -45.83420000     -30.97250000     -71.92100000
H      -45.17510000     -31.84150000     -71.95970000
H      -45.19400000     -30.09790000     -72.27620000
C      -42.71040000     -32.63970000     -70.42830000
H      -43.18780000     -32.45220000     -71.37850000
H      -41.98500000     -31.88250000     -70.25000000
C      -43.64510000     -32.52740000     -69.18480000
H      -42.96780000     -32.66180000     -68.31870000
H      -44.03280000     -31.48080000     -68.97730000
C      -46.45340000     -30.93850000     -70.49980000
H      -47.16930000     -30.21300000     -70.41080000
H      -45.59470000     -30.57780000     -69.82990000
C      -46.90390000     -32.31380000     -70.09570000
C      -48.20760000     -32.71540000     -70.32490000
C      -46.13870000     -33.39670000     -69.58530000
H      -48.98520000     -32.16390000     -70.80010000
C      -46.83780000     -34.55460000     -69.49980000
C      -44.74470000     -33.58140000     -69.22270000
C      -44.58100000     -34.79970000     -68.57800000
S      -48.55990000     -34.39540000     -69.99630000
S      -45.91750000     -35.91330000     -68.74350000
H      -43.64310000     -35.17590000     -68.31020000
