40
Properties=species:S:1:pos:R:3 #=T CELL(abcABC):=T 1.889726e+02=T 90.00000=T Traj:=T positionsangstrom=T Step:=T 0=T Bead:=T pbc="F F F"
C      -46.79460000     -33.14980000     -74.67120000
C      -47.68130000     -33.50570000     -73.69030000
C      -47.51800000     -34.77750000     -73.06260000
C      -46.57870000     -35.68180000     -73.47200000
C      -45.61260000     -35.26690000     -74.45210000
C      -45.74260000     -34.01260000     -75.04180000
H      -46.73910000     -32.11630000     -75.09220000
H      -48.21790000     -35.09190000     -72.36970000
H      -44.78500000     -35.94020000     -74.66950000
H      -44.87190000     -33.65170000     -75.63800000
C      -46.47960000     -37.06460000     -72.86100000
H      -45.68570000     -37.66480000     -73.12850000
H      -47.33100000     -37.64640000     -73.18810000
C      -48.82480000     -32.53920000     -73.29920000
H      -48.93320000     -31.72110000     -74.04490000
H      -49.79380000     -33.03770000     -73.15640000
S      -46.63120000     -36.98960000     -71.05490000
S      -48.49500000     -31.93000000     -71.59240000
C      -45.02650000     -36.07520000     -70.63290000
H      -44.54660000     -36.70460000     -69.86460000
H      -44.37060000     -35.91830000     -71.54150000
C      -46.70450000     -31.65750000     -71.52930000
H      -46.46600000     -30.73390000     -72.09420000
H      -46.19830000     -32.56550000     -72.01020000
C      -46.35110000     -31.41070000     -70.07820000
H      -46.83940000     -30.54450000     -69.63660000
H      -46.68600000     -32.29890000     -69.53760000
C      -45.25930000     -34.61530000     -70.07460000
H      -45.94550000     -34.56410000     -69.24420000
H      -45.84960000     -34.09730000     -70.85310000
C      -43.91300000     -33.80990000     -69.76720000
C      -42.71070000     -34.40590000     -69.76890000
C      -43.81480000     -32.35720000     -69.77620000
H      -42.64030000     -35.42380000     -69.87820000
C      -42.52200000     -31.90230000     -69.43580000
C      -44.77700000     -31.23120000     -69.92320000
C      -44.10670000     -30.01630000     -69.83490000
S      -41.34800000     -33.21440000     -69.63610000
S      -42.44780000     -30.16530000     -69.53020000
H      -44.75220000     -29.09920000     -69.83220000
