40
Properties=species:S:1:pos:R:3 #=T CELL(abcABC):=T 1.889726e+02=T 90.00000=T Traj:=T positionsangstrom=T Step:=T 0=T Bead:=T pbc="F F F"
C      -42.54250000     -33.77140000     -74.05650000
C      -43.39010000     -34.29280000     -73.03100000
C      -44.77530000     -34.07670000     -73.17660000
C      -45.33830000     -33.19560000     -74.11790000
C      -44.48140000     -32.55500000     -75.04130000
C      -43.13000000     -32.96770000     -75.04700000
H      -41.44920000     -34.05290000     -74.05090000
H      -45.51870000     -34.44890000     -72.42300000
H      -44.80710000     -31.92480000     -75.91840000
H      -42.46890000     -32.47100000     -75.73720000
C      -46.79700000     -32.82930000     -74.01840000
H      -47.39500000     -33.49460000     -73.34000000
H      -47.28110000     -33.05440000     -75.03130000
C      -42.91920000     -35.21830000     -71.92370000
H      -43.70190000     -35.86290000     -71.52640000
H      -42.13440000     -35.81940000     -72.35560000
S      -47.06600000     -31.08870000     -73.47020000
S      -42.02880000     -34.17290000     -70.54450000
C      -45.87350000     -30.87220000     -72.00220000
H      -45.13120000     -31.61680000     -72.00490000
H      -45.32050000     -29.93860000     -72.17280000
C      -42.83890000     -32.57420000     -70.28660000
H      -43.39980000     -32.41910000     -71.21260000
H      -42.05760000     -31.77720000     -70.25280000
C      -43.70090000     -32.54020000     -69.00390000
H      -43.05340000     -32.81800000     -68.16490000
H      -44.03020000     -31.54550000     -68.82610000
C      -46.39210000     -30.86630000     -70.57300000
H      -47.16410000     -30.18390000     -70.31720000
H      -45.51140000     -30.58620000     -69.92990000
C      -46.91920000     -32.22280000     -70.10400000
C      -48.22250000     -32.59200000     -70.36970000
C      -46.17550000     -33.34670000     -69.50210000
H      -48.88380000     -31.85260000     -70.77530000
C      -46.95330000     -34.47370000     -69.36070000
C      -44.80650000     -33.57370000     -69.12980000
C      -44.59700000     -34.89940000     -68.72660000
S      -48.60290000     -34.29220000     -69.82350000
S      -46.05080000     -35.84470000     -68.79600000
H      -43.68420000     -35.13910000     -68.27380000
