40
Properties=species:S:1:pos:R:3 #=T CELL(abcABC):=T 1.889726e+02=T 90.00000=T Traj:=T positionsangstrom=T Step:=T 0=T Bead:=T pbc="F F F"
C      -46.91620000     -33.18620000     -73.72940000
C      -47.93360000     -33.86820000     -72.97280000
C      -47.84050000     -35.26360000     -72.74810000
C      -46.75440000     -36.02150000     -73.24390000
C      -45.76820000     -35.32970000     -73.94280000
C      -45.87870000     -33.97700000     -74.20170000
H      -47.01520000     -32.08530000     -73.85550000
H      -48.45790000     -35.84620000     -72.09470000
H      -44.82530000     -35.82120000     -74.25450000
H      -45.05810000     -33.43770000     -74.56650000
C      -46.33650000     -37.27560000     -72.66610000
H      -45.40170000     -37.63890000     -73.08170000
H      -47.15690000     -37.97740000     -72.76920000
C      -49.11350000     -33.14170000     -72.33090000
H      -49.51210000     -32.35030000     -72.92350000
H      -49.97430000     -33.84330000     -72.20890000
S      -46.05630000     -37.14000000     -70.85700000
S      -48.67580000     -32.50960000     -70.66070000
C      -44.51550000     -36.06800000     -70.76560000
H      -44.01070000     -36.33990000     -69.85990000
H      -43.93820000     -36.29700000     -71.68900000
C      -47.19850000     -31.45390000     -70.90700000
H      -47.45230000     -30.36580000     -71.21380000
H      -46.57430000     -31.90740000     -71.64340000
C      -46.33000000     -31.41250000     -69.63060000
H      -46.64970000     -30.54750000     -69.09700000
H      -46.58670000     -32.34740000     -69.04870000
C      -44.86770000     -34.53970000     -70.65850000
H      -45.31340000     -34.41210000     -69.67040000
H      -45.64650000     -34.25490000     -71.41040000
C      -43.68640000     -33.59880000     -70.72590000
C      -42.39420000     -33.88260000     -71.06790000
C      -43.80690000     -32.18770000     -70.29830000
H      -42.04180000     -34.79920000     -71.45580000
C      -42.63580000     -31.53500000     -70.49730000
C      -44.82420000     -31.28870000     -69.78950000
C      -44.34830000     -30.02000000     -69.54570000
S      -41.30550000     -32.52110000     -71.08260000
S      -42.61030000     -29.89230000     -70.00820000
H      -45.04190000     -29.27080000     -69.29640000
