40
Properties=species:S:1:pos:R:3 #=T CELL(abcABC):=T 1.889726e+02=T 90.00000=T Traj:=T positionsangstrom=T Step:=T 0=T Bead:=T pbc="F F F"
C      -46.95560000     -33.51370000     -74.45380000
C      -47.86250000     -33.80860000     -73.40520000
C      -47.78590000     -35.03110000     -72.78580000
C      -46.76170000     -35.95010000     -73.07730000
C      -45.84490000     -35.58130000     -74.02600000
C      -45.96130000     -34.42190000     -74.74090000
H      -46.97510000     -32.51660000     -74.94130000
H      -48.64980000     -35.34560000     -72.09440000
H      -45.08480000     -36.25700000     -74.40000000
H      -45.27360000     -34.22040000     -75.52870000
C      -46.68340000     -37.27140000     -72.38990000
H      -45.97180000     -37.92160000     -72.81820000
H      -47.64720000     -37.72340000     -72.30680000
C      -48.90130000     -32.90730000     -72.92340000
H      -49.09660000     -32.17470000     -73.62220000
H      -49.90000000     -33.31380000     -72.75760000
S      -46.24090000     -37.02410000     -70.60660000
S      -48.50780000     -31.97900000     -71.31390000
C      -44.82690000     -35.84470000     -70.87470000
H      -43.97340000     -36.05160000     -70.33160000
H      -44.38580000     -36.04880000     -71.86570000
C      -46.79500000     -31.44970000     -71.32450000
H      -46.74780000     -30.45560000     -71.80800000
H      -46.17380000     -32.02390000     -71.97010000
C      -46.24370000     -31.38560000     -69.90140000
H      -46.76510000     -30.56400000     -69.36420000
H      -46.64050000     -32.29520000     -69.32190000
C      -45.17130000     -34.35280000     -70.74240000
H      -45.68290000     -34.20050000     -69.82250000
H      -45.82950000     -34.10040000     -71.54110000
C      -43.85210000     -33.51800000     -70.64500000
C      -42.61270000     -33.99570000     -70.97740000
C      -43.81480000     -32.18510000     -70.21110000
H      -42.48670000     -34.94670000     -71.31430000
C      -42.49730000     -31.68960000     -70.02890000
C      -44.77370000     -31.23000000     -69.75950000
C      -44.19110000     -29.98480000     -69.36140000
S      -41.30870000     -32.91220000     -70.51830000
S      -42.39860000     -30.12350000     -69.31160000
H      -44.87330000     -29.30560000     -68.90930000
