40
Properties=species:S:1:pos:R:3 #=T CELL(abcABC):=T 1.889726e+02=T 90.00000=T Traj:=T positionsangstrom=T Step:=T 0=T Bead:=T pbc="F F F"
C      -46.90920000     -33.45120000     -74.34980000
C      -47.83470000     -33.74270000     -73.30360000
C      -47.82770000     -35.03200000     -72.70260000
C      -46.84720000     -35.96310000     -73.07600000
C      -45.95520000     -35.63160000     -74.13120000
C      -45.96730000     -34.38710000     -74.79750000
H      -46.81830000     -32.49580000     -74.83980000
H      -48.49120000     -35.20350000     -71.81280000
H      -45.12920000     -36.28170000     -74.33250000
H      -45.32320000     -34.15360000     -75.59940000
C      -46.75020000     -37.28400000     -72.27880000
H      -46.18420000     -38.04530000     -72.92110000
H      -47.76700000     -37.64740000     -72.07290000
C      -48.84620000     -32.66290000     -72.95650000
H      -48.57360000     -31.77800000     -73.62200000
H      -49.87650000     -33.10370000     -73.17110000
S      -46.11730000     -37.04410000     -70.63440000
S      -48.75350000     -32.04580000     -71.23010000
C      -44.57040000     -36.07470000     -70.63920000
H      -44.04360000     -36.30900000     -69.69790000
H      -44.01890000     -36.46130000     -71.58260000
C      -46.99540000     -31.30550000     -71.25290000
H      -47.03690000     -30.25640000     -71.53310000
H      -46.32820000     -31.89150000     -71.95150000
C      -46.37880000     -31.44990000     -69.87030000
H      -46.82600000     -30.78310000     -69.18020000
H      -46.62020000     -32.42790000     -69.47210000
C      -44.90720000     -34.56500000     -70.77650000
H      -45.80410000     -34.26640000     -70.11780000
H      -45.28590000     -34.43680000     -71.80990000
C      -43.71330000     -33.60980000     -70.56760000
C      -42.44360000     -33.99800000     -70.95950000
C      -43.77340000     -32.26120000     -70.08400000
H      -42.15270000     -34.90470000     -71.39220000
C      -42.50380000     -31.70150000     -70.02520000
C      -44.83570000     -31.33530000     -69.80730000
C      -44.19130000     -30.09160000     -69.49920000
S      -41.24440000     -32.68780000     -70.62530000
S      -42.48200000     -30.09360000     -69.48070000
H      -44.78680000     -29.26860000     -69.17480000
