40
Properties=species:S:1:pos:R:3 #=T CELL(abcABC):=T 1.889726e+02=T 90.00000=T Traj:=T positionsangstrom=T Step:=T 0=T Bead:=T pbc="F F F"
C      -46.86300000     -33.36320000     -74.35150000
C      -47.78370000     -33.62190000     -73.33670000
C      -47.72690000     -34.86740000     -72.58550000
C      -46.90150000     -35.86230000     -72.98980000
C      -46.02000000     -35.66050000     -74.09380000
C      -45.94370000     -34.39190000     -74.67570000
H      -46.87970000     -32.50900000     -74.97150000
H      -48.46270000     -35.05110000     -71.80980000
H      -45.42610000     -36.46180000     -74.51800000
H      -45.28710000     -34.14010000     -75.45280000
C      -46.89640000     -37.19660000     -72.28720000
H      -46.22700000     -37.87000000     -72.83630000
H      -47.83950000     -37.72760000     -72.28400000
C      -48.76690000     -32.55540000     -72.98790000
H      -48.74780000     -31.68960000     -73.64110000
H      -49.67720000     -33.02720000     -73.11700000
S      -46.10750000     -37.08510000     -70.51410000
S      -48.72130000     -32.03340000     -71.18670000
C      -44.54040000     -36.10240000     -70.82930000
H      -43.95440000     -36.32290000     -69.94160000
H      -44.03550000     -36.39010000     -71.71210000
C      -46.92860000     -31.64830000     -71.06660000
H      -46.86590000     -30.62690000     -71.25410000
H      -46.45210000     -32.17690000     -71.88610000
C      -46.22110000     -31.92190000     -69.75670000
H      -46.76990000     -31.28220000     -69.03540000
H      -46.35140000     -32.98090000     -69.43150000
C      -44.88340000     -34.58180000     -70.71450000
H      -45.49430000     -34.49360000     -69.82960000
H      -45.48780000     -34.20720000     -71.50380000
C      -43.61820000     -33.67590000     -70.57890000
C      -42.33020000     -33.98160000     -70.81460000
C      -43.73330000     -32.23280000     -70.34670000
H      -41.85120000     -34.93440000     -71.10920000
C      -42.54390000     -31.57210000     -70.37570000
C      -44.82830000     -31.48540000     -69.74070000
C      -44.45680000     -30.19850000     -69.42010000
S      -41.17160000     -32.65620000     -70.63370000
S      -42.69840000     -29.90810000     -69.70510000
H      -45.17150000     -29.37730000     -69.24650000
