40
Properties=species:S:1:pos:R:3 #=T CELL(abcABC):=T 1.889726e+02=T 90.00000=T Traj:=T positionsangstrom=T Step:=T 0=T Bead:=T pbc="F F F"
C      -43.41850000     -34.00270000     -74.92340000
C      -44.60270000     -34.64550000     -74.49070000
C      -45.83590000     -33.93550000     -74.38340000
C      -45.87770000     -32.57360000     -74.70780000
C      -44.67150000     -31.95500000     -75.16760000
C      -43.46580000     -32.61380000     -75.19550000
H      -42.55480000     -34.67100000     -75.04720000
H      -46.65890000     -34.51230000     -74.01800000
H      -44.81670000     -30.90330000     -75.50880000
H      -42.53690000     -32.01070000     -75.38790000
C      -47.10090000     -31.62170000     -74.58200000
H      -48.04900000     -32.13490000     -74.65110000
H      -47.02880000     -30.81570000     -75.35210000
C      -44.66560000     -36.08360000     -74.01070000
H      -45.65160000     -36.27220000     -73.61740000
H      -44.64890000     -36.75280000     -74.84130000
S      -47.03550000     -30.76680000     -72.89200000
S      -43.43810000     -36.57880000     -72.68460000
C      -47.86400000     -32.04150000     -71.86610000
H      -48.38650000     -31.47840000     -71.09270000
H      -48.63510000     -32.51810000     -72.40160000
C      -43.64140000     -35.25620000     -71.41410000
H      -43.82940000     -34.26950000     -71.79940000
H      -42.74010000     -35.10760000     -70.87670000
C      -44.83860000     -35.60250000     -70.35990000
H      -45.74970000     -35.52340000     -70.90490000
H      -44.81720000     -36.58870000     -69.84780000
C      -46.85490000     -32.98000000     -71.28760000
H      -45.97680000     -33.08500000     -71.92110000
H      -47.25560000     -33.99400000     -71.18660000
C      -46.40810000     -32.57680000     -69.88190000
C      -46.81480000     -31.45940000     -69.21090000
C      -45.54890000     -33.45170000     -69.09060000
H      -47.50550000     -30.70830000     -69.56140000
C      -45.34940000     -32.86100000     -67.78470000
C      -44.76790000     -34.60460000     -69.21470000
C      -43.97420000     -34.87030000     -68.15470000
S      -46.31530000     -31.40700000     -67.51860000
S      -44.22630000     -33.72610000     -66.76650000
H      -43.42850000     -35.86370000     -67.95950000
