40
Properties=species:S:1:pos:R:3 #=T CELL(abcABC):=T 1.889726e+02=T 90.00000=T Traj:=T positionsangstrom=T Step:=T 0=T Bead:=T pbc="F F F"
C      -47.56900000     -33.36660000     -74.01130000
C      -48.08780000     -33.75960000     -72.76070000
C      -47.68590000     -34.99850000     -72.23910000
C      -46.80480000     -35.91640000     -72.96890000
C      -46.52830000     -35.59660000     -74.33990000
C      -46.82870000     -34.28790000     -74.80250000
H      -47.64220000     -32.36980000     -74.41310000
H      -48.17730000     -35.32500000     -71.35430000
H      -45.84390000     -36.26920000     -74.85610000
H      -46.48150000     -33.99550000     -75.81500000
C      -46.44350000     -37.23210000     -72.38900000
H      -45.76460000     -37.72380000     -73.11540000
H      -47.25090000     -37.96710000     -72.28330000
C      -49.13970000     -32.83880000     -72.00990000
H      -49.22490000     -31.98990000     -72.63800000
H      -50.12250000     -33.30580000     -71.80330000
S      -45.66480000     -37.17900000     -70.73210000
S      -48.63470000     -32.21700000     -70.32910000
C      -44.26980000     -35.98180000     -70.92300000
H      -43.39320000     -36.42880000     -70.42370000
H      -43.93960000     -35.86370000     -72.05660000
C      -46.86900000     -31.54440000     -70.59250000
H      -46.98030000     -30.46120000     -70.60720000
H      -46.47090000     -32.02210000     -71.52300000
C      -46.01430000     -31.91570000     -69.36420000
H      -46.54180000     -31.53110000     -68.49970000
H      -46.00540000     -32.92620000     -69.15520000
C      -44.61320000     -34.67640000     -70.39280000
H      -44.92300000     -34.75370000     -69.40540000
H      -45.55700000     -34.36380000     -70.93420000
C      -43.58320000     -33.63840000     -70.63730000
C      -42.36590000     -33.89270000     -71.25000000
C      -43.62160000     -32.23550000     -70.24440000
H      -42.09030000     -34.84390000     -71.59950000
C      -42.57250000     -31.51130000     -70.71060000
C      -44.65080000     -31.39690000     -69.68430000
C      -44.27860000     -30.07240000     -69.65620000
S      -41.31210000     -32.48160000     -71.40100000
S      -42.72560000     -29.82460000     -70.42850000
H      -44.86570000     -29.20330000     -69.56180000
