40
Properties=species:S:1:pos:R:3 #=T CELL(abcABC):=T 1.889726e+02=T 90.00000=T Traj:=T positionsangstrom=T Step:=T 0=T Bead:=T pbc="F F F"
C      -48.23990000     -33.79760000     -73.97910000
C      -48.47030000     -34.10200000     -72.59660000
C      -47.89900000     -35.24740000     -72.05750000
C      -47.18440000     -36.16410000     -72.80100000
C      -46.92950000     -35.88550000     -74.15550000
C      -47.44240000     -34.68460000     -74.72720000
H      -48.72510000     -32.90110000     -74.30710000
H      -48.07690000     -35.36980000     -70.96560000
H      -46.16110000     -36.35280000     -74.77840000
H      -47.07780000     -34.44660000     -75.72180000
C      -46.54240000     -37.34650000     -72.13510000
H      -45.94890000     -37.94050000     -72.84490000
H      -47.32630000     -37.92430000     -71.63640000
C      -49.22830000     -33.06050000     -71.86430000
H      -49.30210000     -32.13970000     -72.53470000
H      -50.19630000     -33.42040000     -71.62220000
S      -45.58960000     -36.92110000     -70.57470000
S      -48.37240000     -32.69020000     -70.18270000
C      -44.30410000     -35.73380000     -71.26310000
H      -43.30670000     -35.90880000     -70.75620000
H      -44.08840000     -36.00310000     -72.30650000
C      -47.01900000     -31.62580000     -70.74280000
H      -47.40320000     -30.56080000     -71.13480000
H      -46.51370000     -32.04030000     -71.59210000
C      -46.01650000     -31.47330000     -69.52550000
H      -46.38640000     -30.69120000     -68.89800000
H      -45.87800000     -32.44400000     -69.02430000
C      -44.76620000     -34.25670000     -71.11330000
H      -45.32970000     -34.26450000     -70.14840000
H      -45.52020000     -34.00570000     -71.86730000
C      -43.56570000     -33.30040000     -71.10900000
C      -42.34660000     -33.74400000     -71.60120000
C      -43.56680000     -31.93240000     -70.60510000
H      -42.14080000     -34.63800000     -72.13190000
C      -42.29960000     -31.37040000     -70.66060000
C      -44.56350000     -31.06520000     -69.95500000
C      -44.01540000     -29.84940000     -69.67090000
S      -41.13510000     -32.46030000     -71.44940000
S      -42.23550000     -29.75010000     -70.05290000
H      -44.38450000     -29.14270000     -68.94640000
