40
Properties=species:S:1:pos:R:3 #=T CELL(abcABC):=T 1.889726e+02=T 90.00000=T Traj:=T positionsangstrom=T Step:=T 0=T Bead:=T pbc="F F F"
C      -46.58010000     -31.49500000     -68.13740000
C      -45.17420000     -31.68420000     -68.24110000
C      -44.43030000     -30.98780000     -69.21290000
C      -45.18270000     -30.32750000     -70.24610000
C      -46.57050000     -30.15400000     -70.10820000
C      -47.28370000     -30.72840000     -69.04930000
H      -47.14390000     -32.08180000     -67.46070000
H      -43.24790000     -30.87980000     -69.27870000
H      -47.02240000     -29.42180000     -70.81890000
H      -48.37340000     -30.64250000     -68.85550000
C      -44.36260000     -29.67770000     -71.31180000
H      -43.35750000     -29.95410000     -71.33510000
H      -44.31850000     -28.66620000     -71.07570000
C      -44.49180000     -32.62290000     -67.26730000
H      -43.40640000     -32.51460000     -67.27320000
H      -44.76950000     -32.41310000     -66.21400000
S      -45.05800000     -29.72860000     -73.03340000
S      -45.04550000     -34.42470000     -67.55470000
C      -45.39190000     -31.50440000     -73.29110000
H      -46.37590000     -31.78350000     -72.90120000
H      -45.50350000     -31.67020000     -74.41250000
C      -44.82880000     -34.68630000     -69.44250000
H      -44.67870000     -35.75560000     -69.51750000
H      -43.92110000     -34.18990000     -69.83640000
C      -45.97760000     -34.19400000     -70.33260000
H      -46.82600000     -34.15700000     -69.68580000
H      -45.79400000     -33.14580000     -70.60830000
C      -44.24130000     -32.51050000     -72.84410000
H      -44.12100000     -32.42660000     -71.79270000
H      -43.26820000     -32.26860000     -73.27180000
C      -44.46010000     -33.99050000     -73.29460000
C      -43.76340000     -34.52220000     -74.41570000
C      -45.33600000     -35.01460000     -72.69540000
H      -42.96950000     -33.97530000     -74.92490000
C      -45.38820000     -36.11900000     -73.48420000
C      -46.22590000     -35.09020000     -71.52020000
C      -46.93200000     -36.28980000     -71.47200000
S      -44.24480000     -36.16290000     -74.77890000
S      -46.56570000     -37.25510000     -72.88370000
H      -47.42540000     -36.72110000     -70.52420000
