40
Properties=species:S:1:pos:R:3 #=T CELL(abcABC):=T 1.889726e+02=T 90.00000=T Traj:=T positionsangstrom=T Step:=T 0=T Bead:=T pbc="F F F"
C      -48.17790000     -33.66770000     -73.70260000
C      -48.47990000     -34.05300000     -72.37690000
C      -47.82240000     -35.25150000     -71.90760000
C      -46.97510000     -35.96610000     -72.72430000
C      -46.77170000     -35.59940000     -74.06080000
C      -47.37970000     -34.45200000     -74.54310000
H      -48.50990000     -32.67100000     -74.03250000
H      -47.94300000     -35.44470000     -70.84540000
H      -46.09970000     -36.13570000     -74.71900000
H      -47.23220000     -34.11310000     -75.55160000
C      -46.28420000     -37.25340000     -72.15770000
H      -45.62660000     -37.72330000     -72.91650000
H      -47.00460000     -37.98520000     -71.80500000
C      -49.41420000     -33.29860000     -71.53020000
H      -50.06630000     -32.70510000     -72.18540000
H      -50.09680000     -34.00940000     -71.07030000
S      -45.27110000     -37.12240000     -70.60800000
S      -48.66710000     -32.09310000     -70.28050000
C      -43.87320000     -35.90070000     -71.14170000
H      -43.07220000     -35.93180000     -70.35540000
H      -43.36820000     -36.28360000     -71.99390000
C      -46.97810000     -31.93420000     -70.82380000
H      -46.92580000     -30.98850000     -71.32390000
H      -46.74310000     -32.68950000     -71.50240000
C      -46.01250000     -31.97900000     -69.57650000
H      -46.36120000     -31.34670000     -68.77270000
H      -45.95300000     -33.05190000     -69.26960000
C      -44.44240000     -34.52010000     -71.21920000
H      -45.18280000     -34.45710000     -70.36130000
H      -45.09780000     -34.37710000     -72.10600000
C      -43.40740000     -33.46630000     -71.14640000
C      -42.15880000     -33.60370000     -71.72140000
C      -43.56950000     -32.19210000     -70.53150000
H      -41.81530000     -34.43070000     -72.24940000
C      -42.44690000     -31.38120000     -70.69220000
C      -44.63380000     -31.47850000     -69.88020000
C      -44.34240000     -30.13170000     -69.71610000
S      -41.20880000     -32.17750000     -71.61700000
S      -42.70240000     -29.75870000     -70.20130000
H      -44.87750000     -29.41290000     -69.17000000
