40
Properties=species:S:1:pos:R:3 #=T CELL(abcABC):=T 1.889726e+02=T 90.00000=T Traj:=T positionsangstrom=T Step:=T 0=T Bead:=T pbc="F F F"
C      -48.08330000     -33.53660000     -73.67030000
C      -48.44580000     -34.06460000     -72.45460000
C      -47.90560000     -35.25830000     -71.99430000
C      -46.97880000     -35.94560000     -72.77420000
C      -46.69640000     -35.42090000     -74.05600000
C      -47.25190000     -34.25580000     -74.52560000
H      -48.41020000     -32.53880000     -73.92700000
H      -48.24970000     -35.70250000     -71.03470000
H      -46.07960000     -36.02870000     -74.77200000
H      -47.02050000     -33.93780000     -75.54710000
C      -46.29010000     -37.26120000     -72.34390000
H      -45.52630000     -37.50840000     -73.04880000
H      -47.08310000     -37.97690000     -72.22560000
C      -49.45780000     -33.27480000     -71.52350000
H      -50.18390000     -32.66900000     -72.06440000
H      -50.12020000     -33.99800000     -71.03210000
S      -45.35780000     -37.19050000     -70.74700000
S      -48.53890000     -32.45130000     -70.10990000
C      -44.13510000     -35.93320000     -71.20860000
H      -43.21870000     -36.27380000     -70.77670000
H      -43.85350000     -35.97630000     -72.28800000
C      -46.94500000     -31.94940000     -70.83470000
H      -46.96130000     -31.09760000     -71.49250000
H      -46.61080000     -32.70750000     -71.45930000
C      -46.04880000     -31.58750000     -69.68200000
H      -46.45560000     -30.74130000     -69.06810000
H      -46.06580000     -32.33460000     -68.91570000
C      -44.59610000     -34.53090000     -70.85580000
H      -44.99260000     -34.39470000     -69.84460000
H      -45.49300000     -34.28530000     -71.49510000
C      -43.49710000     -33.47080000     -71.04130000
C      -42.32790000     -33.70310000     -71.63750000
C      -43.63340000     -32.08120000     -70.57850000
H      -42.00520000     -34.60840000     -72.05510000
C      -42.44360000     -31.39180000     -70.72680000
C      -44.61030000     -31.21010000     -69.97510000
C      -44.13610000     -29.99530000     -69.64800000
S      -41.26910000     -32.31870000     -71.68260000
S      -42.53150000     -29.71870000     -70.13570000
H      -44.75760000     -29.19050000     -69.24980000
