40
Properties=species:S:1:pos:R:3 #=T CELL(abcABC):=T 1.889726e+02=T 90.00000=T Traj:=T positionsangstrom=T Step:=T 0=T Bead:=T pbc="F F F"
C      -43.30980000     -34.02850000     -75.01340000
C      -44.49740000     -34.55210000     -74.45870000
C      -45.69680000     -33.76470000     -74.43240000
C      -45.60780000     -32.39650000     -74.83880000
C      -44.41990000     -31.90690000     -75.35780000
C      -43.29630000     -32.73030000     -75.50130000
H      -42.37560000     -34.59650000     -74.95380000
H      -46.71090000     -34.22450000     -74.09640000
H      -44.28820000     -30.88670000     -75.56300000
H      -42.48610000     -32.36340000     -76.03200000
C      -46.92010000     -31.66100000     -74.60910000
H      -47.81900000     -32.33070000     -74.60860000
H      -46.99780000     -30.85460000     -75.32780000
C      -44.55110000     -35.99800000     -73.95360000
H      -45.52940000     -36.22560000     -73.66650000
H      -44.26700000     -36.69640000     -74.73650000
S      -47.04750000     -30.94440000     -72.92850000
S      -43.31270000     -36.26000000     -72.61090000
C      -47.98010000     -32.21100000     -71.98780000
H      -48.67690000     -31.73800000     -71.31620000
H      -48.60000000     -32.80810000     -72.63900000
C      -43.84930000     -35.12830000     -71.26190000
H      -44.15690000     -34.22910000     -71.73040000
H      -42.97750000     -34.89830000     -70.63830000
C      -44.95600000     -35.65320000     -70.32730000
H      -45.85660000     -35.59800000     -70.92950000
H      -44.74710000     -36.65870000     -70.07670000
C      -46.98500000     -33.07620000     -71.14550000
H      -46.12420000     -33.19040000     -71.80360000
H      -47.40590000     -33.98450000     -70.89570000
C      -46.45620000     -32.58320000     -69.82180000
C      -46.81100000     -31.41100000     -69.14970000
C      -45.59000000     -33.41840000     -69.01740000
H      -47.53430000     -30.76030000     -69.61170000
C      -45.41970000     -32.91410000     -67.75410000
C      -45.02350000     -34.77840000     -69.12390000
C      -44.41190000     -35.14800000     -67.95730000
S      -46.11940000     -31.27520000     -67.58790000
S      -44.50420000     -33.88970000     -66.72580000
H      -43.74660000     -35.98150000     -67.80410000
