40
Properties=species:S:1:pos:R:3 #=T CELL(abcABC):=T 1.889726e+02=T 90.00000=T Traj:=T positionsangstrom=T Step:=T 0=T Bead:=T pbc="F F F"
C      -42.05460000     -35.44380000     -72.09400000
C      -43.42570000     -35.21840000     -72.08270000
C      -43.92940000     -33.94730000     -72.48880000
C      -43.03390000     -32.90440000     -72.73740000
C      -41.64560000     -33.20160000     -72.80270000
C      -41.13970000     -34.42970000     -72.32710000
H      -41.75130000     -36.37920000     -71.76920000
H      -45.11050000     -33.88650000     -72.50140000
H      -40.92380000     -32.36550000     -72.97820000
H      -40.02980000     -34.54670000     -72.08210000
C      -43.60470000     -31.60570000     -73.15200000
H      -44.73050000     -31.78900000     -73.48170000
H      -43.05320000     -31.16130000     -73.95090000
C      -44.45380000     -36.23910000     -71.72480000
H      -45.46890000     -35.76190000     -71.99440000
H      -44.40500000     -37.11820000     -72.36340000
S      -43.56710000     -30.36130000     -71.73430000
S      -44.37070000     -36.53640000     -69.87450000
C      -43.98510000     -31.24780000     -70.17580000
H      -43.86050000     -32.31880000     -70.45320000
H      -43.22660000     -30.98980000     -69.43820000
C      -44.69060000     -34.85110000     -69.29970000
H      -44.40060000     -34.22280000     -70.10260000
H      -44.02330000     -34.67200000     -68.43580000
C      -46.02190000     -34.40940000     -68.78960000
H      -46.36570000     -35.16020000     -68.08110000
H      -45.90990000     -33.57250000     -68.07920000
C      -45.46880000     -31.02200000     -69.69640000
H      -45.61660000     -29.97280000     -69.53630000
H      -45.53430000     -31.49520000     -68.69520000
C      -46.46700000     -31.61420000     -70.68740000
C      -46.98960000     -30.79790000     -71.62440000
C      -47.10780000     -32.89950000     -70.62540000
H      -46.52670000     -29.86470000     -71.88850000
C      -47.99690000     -33.03500000     -71.70110000
C      -47.00500000     -34.11980000     -69.84110000
C      -47.90430000     -35.10550000     -70.30390000
S      -48.17430000     -31.60730000     -72.68810000
S      -48.85880000     -34.54860000     -71.59830000
H      -48.06710000     -36.08100000     -69.92510000
