40
Properties=species:S:1:pos:R:3 #=T CELL(abcABC):=T 1.889726e+02=T 90.00000=T Traj:=T positionsangstrom=T Step:=T 0=T Bead:=T pbc="F F F"
C      -46.05680000     -33.32790000     -68.85140000
C      -45.67720000     -32.04130000     -69.30330000
C      -44.30510000     -31.79110000     -69.57280000
C      -43.32260000     -32.80660000     -69.57130000
C      -43.81880000     -34.14360000     -69.28990000
C      -45.14770000     -34.34040000     -68.94540000
H      -47.08200000     -33.51280000     -68.43410000
H      -44.08470000     -30.80860000     -69.98680000
H      -43.24090000     -35.02170000     -69.35660000
H      -45.37360000     -35.39910000     -68.59140000
C      -41.86610000     -32.53200000     -70.08700000
H      -41.19530000     -33.15510000     -69.45890000
H      -41.62710000     -31.47030000     -69.97080000
C      -46.56310000     -30.76700000     -69.21010000
H      -47.09430000     -30.55340000     -68.29400000
H      -45.89480000     -29.93750000     -69.46220000
S      -41.71010000     -33.08980000     -71.84840000
S      -47.79530000     -30.65310000     -70.61290000
C      -43.18310000     -32.16130000     -72.61630000
H      -43.99560000     -31.92660000     -71.91810000
H      -42.80780000     -31.17100000     -72.93500000
C      -46.69380000     -30.77730000     -72.12170000
H      -45.65820000     -30.85820000     -71.80480000
H      -46.77470000     -29.87790000     -72.72440000
C      -47.08960000     -31.91000000     -73.11480000
H      -48.16850000     -31.77000000     -73.40290000
H      -46.62540000     -31.90230000     -74.13050000
C      -43.88920000     -33.01850000     -73.71200000
H      -43.08730000     -33.40250000     -74.36360000
H      -44.63580000     -32.48520000     -74.23240000
C      -44.56100000     -34.21640000     -73.12580000
C      -44.01410000     -35.46530000     -73.02920000
C      -45.87760000     -34.24610000     -72.61100000
H      -42.99010000     -35.67850000     -73.21840000
C      -46.19700000     -35.47630000     -72.02360000
C      -46.93230000     -33.27140000     -72.48800000
C      -47.99900000     -33.82080000     -71.80590000
S      -45.00620000     -36.67230000     -72.20800000
S      -47.78770000     -35.47540000     -71.21700000
H      -48.94910000     -33.41330000     -71.79920000
