40
Properties=species:S:1:pos:R:3 #=T CELL(abcABC):=T 1.889726e+02=T 90.00000=T Traj:=T positionsangstrom=T Step:=T 0=T Bead:=T pbc="F F F"
C      -42.07680000     -35.42460000     -71.62350000
C      -43.45110000     -35.22570000     -71.88680000
C      -43.90410000     -33.91660000     -72.12740000
C      -43.05680000     -32.80150000     -72.11080000
C      -41.70360000     -33.03090000     -71.87250000
C      -41.23910000     -34.33560000     -71.59140000
H      -41.86570000     -36.45510000     -71.23100000
H      -44.97450000     -33.78800000     -72.36690000
H      -41.00390000     -32.17510000     -71.82120000
H      -40.15830000     -34.35540000     -71.33800000
C      -43.62340000     -31.49400000     -72.47430000
H      -44.64920000     -31.67140000     -72.81230000
H      -43.14260000     -31.15980000     -73.32260000
C      -44.45760000     -36.35480000     -71.64910000
H      -45.45720000     -36.11100000     -72.05200000
H      -44.21260000     -37.33110000     -72.01370000
S      -43.53710000     -30.13970000     -71.38560000
S      -44.59220000     -36.56500000     -69.81590000
C      -44.26370000     -30.91400000     -69.82880000
H      -43.77640000     -31.90030000     -69.66070000
H      -43.94320000     -30.19580000     -69.11460000
C      -44.72320000     -34.87780000     -69.09230000
H      -44.04550000     -34.22920000     -69.65330000
H      -44.13420000     -35.08100000     -68.13770000
C      -46.15600000     -34.31520000     -68.97820000
H      -46.80470000     -35.05990000     -68.42360000
H      -46.08660000     -33.37050000     -68.37700000
C      -45.81120000     -30.93010000     -69.82610000
H      -46.11240000     -29.89090000     -69.70420000
H      -46.16720000     -31.35840000     -68.90460000
C      -46.60780000     -31.63300000     -71.00890000
C      -46.96540000     -30.82970000     -72.10610000
C      -47.06630000     -32.97820000     -71.03360000
H      -46.70640000     -29.79180000     -72.28520000
C      -47.97590000     -33.14780000     -72.11220000
C      -46.89450000     -34.15190000     -70.20890000
C      -47.65390000     -35.19390000     -70.77280000
S      -47.99350000     -31.77620000     -73.27260000
S      -48.51850000     -34.81350000     -72.24700000
H      -47.84300000     -36.17080000     -70.31380000
