40
Properties=species:S:1:pos:R:3 #=T CELL(abcABC):=T 1.889726e+02=T 90.00000=T Traj:=T positionsangstrom=T Step:=T 0=T Bead:=T pbc="F F F"
C      -47.09000000     -36.81220000     -70.76460000
C      -45.94800000     -36.39560000     -70.05350000
C      -44.75640000     -36.25050000     -70.79890000
C      -44.66070000     -36.74670000     -72.13660000
C      -45.72170000     -37.41610000     -72.65830000
C      -46.99250000     -37.31520000     -72.03520000
H      -48.08480000     -36.77490000     -70.31430000
H      -43.82070000     -35.89300000     -70.32280000
H      -45.66170000     -37.88290000     -73.69950000
H      -47.87630000     -37.70690000     -72.42150000
C      -43.33320000     -36.69390000     -72.94080000
H      -43.48170000     -36.81170000     -73.97840000
H      -42.62580000     -37.52050000     -72.67040000
C      -45.94440000     -35.90990000     -68.53440000
H      -46.94320000     -35.77610000     -68.12340000
H      -45.64370000     -36.76400000     -67.91010000
S      -42.25700000     -35.30530000     -72.59880000
S      -44.94480000     -34.44480000     -68.14000000
C      -43.34720000     -33.84640000     -73.03280000
H      -42.72990000     -33.23370000     -73.67000000
H      -44.11230000     -34.25810000     -73.63240000
C      -46.00200000     -33.18690000     -68.85900000
H      -47.03040000     -33.14390000     -68.41440000
H      -46.21500000     -33.44920000     -69.89990000
C      -45.20980000     -31.83460000     -68.96340000
H      -45.24980000     -31.36500000     -68.00550000
H      -44.19180000     -32.10230000     -69.21410000
C      -43.89690000     -32.98400000     -71.91820000
H      -43.06230000     -32.41230000     -71.39680000
H      -44.43190000     -33.76590000     -71.26520000
C      -44.95190000     -32.01400000     -72.38280000
C      -45.04700000     -31.64180000     -73.67500000
C      -45.67360000     -31.10760000     -71.45590000
H      -44.62890000     -32.04470000     -74.57790000
C      -46.39460000     -30.16120000     -72.20970000
C      -45.80100000     -30.87950000     -70.01800000
C      -46.56890000     -29.80980000     -69.67760000
S      -46.20910000     -30.28870000     -73.91170000
S      -47.23110000     -29.07680000     -71.18590000
H      -46.82170000     -29.51890000     -68.58200000
