40
Properties=species:S:1:pos:R:3 #=T CELL(abcABC):=T 1.889726e+02=T 90.00000=T Traj:=T positionsangstrom=T Step:=T 0=T Bead:=T pbc="F F F"
C      -47.03020000     -36.97740000     -70.65160000
C      -45.84070000     -36.58370000     -69.96560000
C      -44.69310000     -36.44020000     -70.76610000
C      -44.62480000     -36.71150000     -72.15220000
C      -45.82300000     -37.16140000     -72.78790000
C      -46.95400000     -37.31760000     -71.99940000
H      -48.02340000     -37.26240000     -70.21640000
H      -43.80170000     -36.00710000     -70.29350000
H      -45.83200000     -37.43440000     -73.84870000
H      -47.89300000     -37.70840000     -72.34610000
C      -43.34290000     -36.73610000     -72.84220000
H      -43.54460000     -36.91230000     -73.90970000
H      -42.78120000     -37.61550000     -72.46960000
C      -45.97530000     -36.11320000     -68.53210000
H      -47.02510000     -35.92810000     -68.42170000
H      -45.56970000     -36.83840000     -67.84120000
S      -42.31810000     -35.20910000     -72.57900000
S      -44.98700000     -34.54290000     -68.18750000
C      -43.43330000     -33.83710000     -73.13790000
H      -42.73380000     -33.13350000     -73.59770000
H      -44.16290000     -34.14310000     -73.89860000
C      -45.93780000     -33.17210000     -69.11870000
H      -46.86620000     -33.00250000     -68.53880000
H      -46.15120000     -33.64060000     -70.09770000
C      -45.12530000     -31.89170000     -69.06660000
H      -45.12910000     -31.53320000     -67.99780000
H      -44.09270000     -32.09740000     -69.32270000
C      -44.08330000     -33.07660000     -71.93860000
H      -43.25630000     -32.75430000     -71.35080000
H      -44.58340000     -33.73030000     -71.30320000
C      -44.90490000     -31.91510000     -72.34930000
C      -45.13390000     -31.64010000     -73.64140000
C      -45.52150000     -30.96990000     -71.42860000
H      -44.81700000     -32.17440000     -74.51400000
C      -46.23390000     -30.01500000     -72.17340000
C      -45.75380000     -30.86210000     -70.02540000
C      -46.70210000     -29.92900000     -69.69730000
S      -46.18160000     -30.22310000     -73.88990000
S      -47.21890000     -28.97920000     -71.10130000
H      -47.01650000     -29.53890000     -68.73410000
