40
Properties=species:S:1:pos:R:3 #=T CELL(abcABC):=T 1.889726e+02=T 90.00000=T Traj:=T positionsangstrom=T Step:=T 0=T Bead:=T pbc="F F F"
C      -42.00910000     -35.17840000     -70.86350000
C      -43.36810000     -35.23930000     -71.26450000
C      -43.90600000     -34.11670000     -71.92550000
C      -43.08580000     -32.96950000     -72.12450000
C      -41.74720000     -33.01750000     -71.79020000
C      -41.18680000     -34.09990000     -71.17300000
H      -41.58310000     -35.98400000     -70.38480000
H      -44.88060000     -33.99320000     -72.26440000
H      -41.16700000     -32.11290000     -71.94110000
H      -40.09110000     -34.10700000     -70.99840000
C      -43.69020000     -31.69830000     -72.71060000
H      -44.72910000     -31.91200000     -72.92170000
H      -43.25660000     -31.18190000     -73.55860000
C      -44.08240000     -36.43960000     -70.79210000
H      -44.94420000     -36.66390000     -71.44500000
H      -43.44310000     -37.32190000     -70.80150000
S      -43.71360000     -30.30470000     -71.47350000
S      -44.64090000     -36.23510000     -69.01470000
C      -44.50740000     -31.07400000     -69.96770000
H      -44.09820000     -32.04000000     -69.73440000
H      -44.15810000     -30.50280000     -69.09560000
C      -45.19900000     -34.48370000     -68.93850000
H      -44.72870000     -34.07280000     -69.86330000
H      -44.83190000     -34.06430000     -68.01810000
C      -46.68860000     -34.36550000     -69.04930000
H      -47.24860000     -35.23290000     -68.63310000
H      -47.05860000     -33.56820000     -68.41380000
C      -46.04960000     -31.08910000     -69.97140000
H      -46.35250000     -30.07610000     -69.86270000
H      -46.45070000     -31.49050000     -69.07570000
C      -46.70210000     -31.61190000     -71.17600000
C      -47.08580000     -30.79680000     -72.22360000
C      -47.17510000     -32.94650000     -71.34050000
H      -46.93060000     -29.73010000     -72.38550000
C      -47.55050000     -33.20860000     -72.62730000
C      -47.10930000     -34.17250000     -70.53130000
C      -47.59580000     -35.24170000     -71.26050000
S      -47.77800000     -31.78470000     -73.59750000
S      -48.00860000     -34.89050000     -72.88990000
H      -47.83130000     -36.25400000     -70.87650000
