40
Properties=species:S:1:pos:R:3 #=T CELL(abcABC):=T 1.889726e+02=T 90.00000=T Traj:=T positionsangstrom=T Step:=T 0=T Bead:=T pbc="F F F"
C      -46.20900000     -36.66430000     -71.04260000
C      -45.18290000     -36.45230000     -70.11450000
C      -43.85290000     -36.46810000     -70.57420000
C      -43.58400000     -36.35070000     -71.92370000
C      -44.61120000     -36.58050000     -72.90400000
C      -45.94890000     -36.72460000     -72.42090000
H      -47.29970000     -36.80400000     -70.65070000
H      -43.07030000     -36.29280000     -69.77630000
H      -44.48330000     -36.33880000     -73.96880000
H      -46.81370000     -36.88120000     -72.99440000
C      -42.20390000     -36.10250000     -72.48740000
H      -42.06140000     -36.43330000     -73.52170000
H      -41.43960000     -36.57050000     -71.87050000
C      -45.50220000     -36.36770000     -68.58220000
H      -46.48770000     -36.80100000     -68.26280000
H      -44.72500000     -36.85970000     -68.09440000
S      -41.67270000     -34.28970000     -72.40780000
S      -45.30740000     -34.68110000     -67.81570000
C      -43.10550000     -33.33350000     -73.02270000
H      -42.57970000     -32.43410000     -73.49160000
H      -43.71070000     -33.95260000     -73.70970000
C      -46.40520000     -33.80530000     -69.04530000
H      -47.38990000     -33.75540000     -68.68760000
H      -46.54490000     -34.37600000     -70.06480000
C      -45.90940000     -32.36320000     -69.23880000
H      -46.02180000     -31.87440000     -68.30830000
H      -44.85380000     -32.30190000     -69.58830000
C      -43.96900000     -32.74690000     -71.87790000
H      -43.38780000     -32.23570000     -71.06310000
H      -44.55950000     -33.45080000     -71.37310000
C      -44.99270000     -31.71730000     -72.35800000
C      -45.06740000     -31.12050000     -73.59490000
C      -46.18870000     -31.36250000     -71.57700000
H      -44.31480000     -31.17640000     -74.32270000
C      -47.09360000     -30.50020000     -72.25850000
C      -46.68660000     -31.64570000     -70.22900000
C      -47.89120000     -31.03720000     -69.97960000
S      -46.49410000     -30.09730000     -73.88180000
S      -48.40720000     -29.94670000     -71.29010000
H      -48.41580000     -31.07270000     -69.07500000
