40
Properties=species:S:1:pos:R:3 #=T CELL(abcABC):=T 1.889726e+02=T 90.00000=T Traj:=T positionsangstrom=T Step:=T 0=T Bead:=T pbc="F F F"
C      -46.28650000     -36.81040000     -70.98510000
C      -45.15270000     -36.69760000     -70.15690000
C      -43.84980000     -36.69560000     -70.73480000
C      -43.71640000     -36.56890000     -72.11020000
C      -44.91180000     -36.68990000     -72.95450000
C      -46.16010000     -36.85030000     -72.39040000
H      -47.17940000     -36.81410000     -70.45090000
H      -42.98790000     -36.61850000     -70.14430000
H      -44.82200000     -36.50410000     -74.02970000
H      -47.04510000     -36.94400000     -73.04950000
C      -42.37170000     -36.19680000     -72.62610000
H      -42.31810000     -36.38030000     -73.68840000
H      -41.58610000     -36.82350000     -72.19560000
C      -45.38570000     -36.44630000     -68.70440000
H      -46.38710000     -36.57320000     -68.47010000
H      -44.88950000     -37.28300000     -68.12140000
S      -41.84020000     -34.40580000     -72.18200000
S      -44.90240000     -34.73020000     -68.16250000
C      -43.07750000     -33.10160000     -72.81040000
H      -42.36700000     -32.45680000     -73.22840000
H      -43.55800000     -33.50540000     -73.67230000
C      -46.15780000     -33.85740000     -69.26160000
H      -47.11590000     -34.24860000     -68.88450000
H      -46.09230000     -34.20350000     -70.25280000
C      -45.99450000     -32.35250000     -69.20320000
H      -46.21940000     -32.10500000     -68.09690000
H      -44.93670000     -32.05500000     -69.28980000
C      -43.92610000     -32.55350000     -71.68320000
H      -43.28490000     -32.02880000     -70.99210000
H      -44.43500000     -33.44960000     -71.16090000
C      -45.05180000     -31.62980000     -72.19080000
C      -45.01030000     -30.94680000     -73.39390000
C      -46.33170000     -31.31020000     -71.51150000
H      -44.21020000     -31.00430000     -74.14690000
C      -47.07570000     -30.35450000     -72.20880000
C      -46.79280000     -31.56870000     -70.20660000
C      -47.93190000     -30.85460000     -69.94720000
S      -46.36090000     -29.99740000     -73.85020000
S      -48.49540000     -29.81800000     -71.25710000
H      -48.41410000     -30.93410000     -68.96450000
