40
Properties=species:S:1:pos:R:3 #=T CELL(abcABC):=T 1.889726e+02=T 90.00000=T Traj:=T positionsangstrom=T Step:=T 0=T Bead:=T pbc="F F F"
C      -46.34170000     -37.03200000     -70.98720000
C      -45.24210000     -36.72190000     -70.22500000
C      -43.96070000     -36.41000000     -70.80060000
C      -43.88650000     -36.35740000     -72.19020000
C      -45.02440000     -36.69850000     -72.93530000
C      -46.23150000     -37.04090000     -72.39280000
H      -47.24840000     -37.24740000     -70.47630000
H      -43.12380000     -36.13450000     -70.25620000
H      -44.95010000     -36.62660000     -73.99410000
H      -47.06910000     -37.35740000     -73.02220000
C      -42.53780000     -35.96680000     -72.81310000
H      -42.63540000     -35.99970000     -73.93770000
H      -41.77440000     -36.66210000     -72.51580000
C      -45.38610000     -36.54020000     -68.72600000
H      -46.40340000     -36.85500000     -68.36740000
H      -44.58710000     -37.09120000     -68.19880000
S      -41.78120000     -34.41060000     -72.19070000
S      -45.05380000     -34.78850000     -68.32400000
C      -42.98090000     -33.17310000     -72.87030000
H      -42.46490000     -32.33910000     -73.39250000
H      -43.75300000     -33.73760000     -73.49610000
C      -46.24370000     -33.84540000     -69.22620000
H      -47.27830000     -34.08670000     -68.92590000
H      -46.25980000     -34.06530000     -70.35080000
C      -46.00670000     -32.38720000     -68.90800000
H      -46.56960000     -32.12740000     -68.06230000
H      -44.96280000     -32.26220000     -68.78130000
C      -43.83750000     -32.48910000     -71.76580000
H      -43.19680000     -32.01160000     -71.04340000
H      -44.16100000     -33.32950000     -71.11160000
C      -44.92800000     -31.56690000     -72.20730000
C      -45.00360000     -31.06100000     -73.49200000
C      -46.10240000     -31.23980000     -71.38190000
H      -44.19180000     -30.98350000     -74.24880000
C      -46.98700000     -30.45720000     -72.12870000
C      -46.56940000     -31.43730000     -70.04900000
C      -47.71740000     -30.70720000     -69.82760000
S      -46.48950000     -30.05040000     -73.74010000
S      -48.31480000     -29.83760000     -71.24610000
H      -48.28670000     -30.90980000     -68.90940000
