40
Properties=species:S:1:pos:R:3 #=T CELL(abcABC):=T 1.889726e+02=T 90.00000=T Traj:=T positionsangstrom=T Step:=T 0=T Bead:=T pbc="F F F"
C      -46.69470000     -36.73980000     -71.34890000
C      -45.68150000     -36.64150000     -70.41680000
C      -44.37750000     -36.58850000     -70.94590000
C      -44.10870000     -36.65020000     -72.32320000
C      -45.15760000     -37.02020000     -73.15520000
C      -46.51310000     -36.90650000     -72.73340000
H      -47.69930000     -36.56400000     -70.94010000
H      -43.60670000     -36.26420000     -70.24410000
H      -45.07600000     -37.22240000     -74.22780000
H      -47.39810000     -37.02500000     -73.44920000
C      -42.76430000     -36.31780000     -72.90270000
H      -42.79550000     -36.31180000     -74.02450000
H      -41.93280000     -37.04880000     -72.59620000
C      -45.83320000     -36.47100000     -68.86360000
H      -46.96420000     -36.36370000     -68.56700000
H      -45.55560000     -37.41420000     -68.35410000
S      -42.01960000     -34.67330000     -72.44900000
S      -45.07430000     -34.96250000     -68.20590000
C      -43.21950000     -33.46630000     -73.11680000
H      -42.76850000     -32.64180000     -73.73840000
H      -43.87360000     -33.95350000     -73.87650000
C      -46.03940000     -33.74100000     -69.19470000
H      -47.10560000     -33.81790000     -68.93540000
H      -45.88260000     -33.92520000     -70.25020000
C      -45.57600000     -32.27500000     -68.97330000
H      -45.75770000     -31.94720000     -67.94910000
H      -44.48050000     -32.30080000     -68.99900000
C      -44.07830000     -32.89940000     -71.89690000
H      -43.32840000     -32.40350000     -71.25790000
H      -44.52080000     -33.78700000     -71.47210000
C      -45.15050000     -31.86860000     -72.30710000
C      -45.35760000     -31.37430000     -73.60480000
C      -45.94010000     -31.16540000     -71.35630000
H      -44.96160000     -31.73970000     -74.55520000
C      -46.74700000     -30.16660000     -71.91620000
C      -46.10820000     -31.25840000     -69.89650000
C      -46.93740000     -30.26080000     -69.43970000
S      -46.51030000     -30.08390000     -73.60080000
S      -47.48540000     -29.08050000     -70.60890000
H      -47.23280000     -30.12370000     -68.44440000
