40
Properties=species:S:1:pos:R:3 #=T CELL(abcABC):=T 1.889726e+02=T 90.00000=T Traj:=T positionsangstrom=T Step:=T 0=T Bead:=T pbc="F F F"
C      -46.57360000     -37.18570000     -71.25150000
C      -45.61380000     -36.63870000     -70.43690000
C      -44.44790000     -36.19380000     -71.03630000
C      -44.21880000     -36.33550000     -72.39060000
C      -45.22800000     -36.90120000     -73.20620000
C      -46.37870000     -37.30420000     -72.61530000
H      -47.47280000     -37.48820000     -70.77040000
H      -43.77190000     -35.87010000     -70.32580000
H      -45.12250000     -36.88080000     -74.26360000
H      -47.30480000     -37.65350000     -73.17870000
C      -42.81510000     -36.14580000     -72.95100000
H      -42.87710000     -36.36160000     -73.99390000
H      -42.21200000     -36.88840000     -72.57840000
C      -45.80230000     -36.47120000     -68.91620000
H      -46.84100000     -36.40590000     -68.63960000
H      -45.34980000     -37.25610000     -68.44070000
S      -41.93810000     -34.65060000     -72.41870000
S      -45.09230000     -34.90870000     -68.16830000
C      -43.11150000     -33.34070000     -72.98760000
H      -42.49750000     -32.45210000     -73.19900000
H      -43.50720000     -33.71130000     -73.90680000
C      -46.11940000     -33.65180000     -69.02100000
H      -47.07720000     -33.77430000     -68.50530000
H      -46.26290000     -33.96130000     -70.05590000
C      -45.54750000     -32.22040000     -68.93340000
H      -45.73760000     -31.82100000     -67.90280000
H      -44.44170000     -32.19410000     -69.10510000
C      -44.16040000     -33.02230000     -71.87600000
H      -43.66120000     -32.63810000     -70.96480000
H      -44.72170000     -33.90180000     -71.45470000
C      -45.14380000     -31.92390000     -72.29180000
C      -45.26430000     -31.43020000     -73.60330000
C      -45.88040000     -31.18750000     -71.28860000
H      -44.61980000     -31.60440000     -74.44670000
C      -46.69420000     -30.22090000     -71.91010000
C      -46.17710000     -31.23330000     -69.84520000
C      -47.03590000     -30.22200000     -69.49230000
S      -46.43160000     -30.07640000     -73.56850000
S      -47.65550000     -29.23100000     -70.88750000
H      -47.43550000     -30.05030000     -68.50510000
