40
Properties=species:S:1:pos:R:3 #=T CELL(abcABC):=T 1.889726e+02=T 90.00000=T Traj:=T positionsangstrom=T Step:=T 0=T Bead:=T pbc="F F F"
C      -46.03610000     -36.69020000     -70.88850000
C      -45.10050000     -36.42390000     -69.85350000
C      -43.74690000     -36.27040000     -70.19660000
C      -43.35350000     -36.09960000     -71.56650000
C      -44.34130000     -36.21850000     -72.57090000
C      -45.66600000     -36.46770000     -72.20490000
H      -47.03310000     -36.75230000     -70.53370000
H      -42.86910000     -36.31740000     -69.47150000
H      -44.20180000     -36.16920000     -73.63640000
H      -46.38070000     -36.64870000     -73.00030000
C      -41.90690000     -35.76070000     -71.92920000
H      -41.78910000     -36.03820000     -73.00110000
H      -41.17090000     -36.31130000     -71.32120000
C      -45.54890000     -36.41860000     -68.46550000
H      -46.55540000     -36.98030000     -68.37620000
H      -44.73730000     -36.85190000     -67.93600000
S      -41.48300000     -34.00270000     -71.74290000
S      -45.79590000     -34.69490000     -67.83350000
C      -42.81410000     -33.22700000     -72.84330000
H      -42.27820000     -32.37980000     -73.31520000
H      -43.01790000     -33.93000000     -73.53500000
C      -46.48410000     -33.59140000     -69.25150000
H      -47.52440000     -33.50990000     -69.09810000
H      -46.26460000     -34.26040000     -70.12970000
C      -45.96070000     -32.22880000     -69.29820000
H      -46.07610000     -31.69900000     -68.38070000
H      -44.85370000     -32.30460000     -69.44900000
C      -44.07540000     -32.94340000     -72.05020000
H      -43.85320000     -32.47020000     -71.03630000
H      -44.44040000     -33.95070000     -71.86300000
C      -45.14190000     -31.95440000     -72.63720000
C      -45.19720000     -31.54960000     -73.95920000
C      -46.25460000     -31.44720000     -71.84340000
H      -44.40830000     -31.82190000     -74.71210000
C      -47.11620000     -30.67520000     -72.62190000
C      -46.67550000     -31.56560000     -70.50740000
C      -47.85330000     -30.88710000     -70.27510000
S      -46.62570000     -30.54320000     -74.24290000
S      -48.47010000     -30.12900000     -71.69720000
H      -48.49530000     -30.92640000     -69.37240000
