40
Properties=species:S:1:pos:R:3 #=T CELL(abcABC):=T 1.889726e+02=T 90.00000=T Traj:=T positionsangstrom=T Step:=T 0=T Bead:=T pbc="F F F"
C      -45.75530000     -37.20110000     -70.62000000
C      -45.20490000     -36.28450000     -69.71510000
C      -43.92670000     -35.76260000     -69.96210000
C      -43.23310000     -36.17190000     -71.05560000
C      -43.77150000     -37.18390000     -71.89610000
C      -45.03030000     -37.70630000     -71.73910000
H      -46.79340000     -37.58890000     -70.39850000
H      -43.40560000     -35.08880000     -69.31180000
H      -43.21030000     -37.35820000     -72.79560000
H      -45.42980000     -38.36440000     -72.48300000
C      -41.90960000     -35.54390000     -71.42000000
H      -41.69700000     -35.55570000     -72.48980000
H      -41.05810000     -36.08340000     -70.99330000
C      -46.15730000     -35.89490000     -68.57020000
H      -47.18780000     -36.07790000     -68.85730000
H      -46.04340000     -36.61710000     -67.74480000
S      -41.75240000     -33.78820000     -70.85620000
S      -45.75060000     -34.02980000     -68.17060000
C      -42.70990000     -32.86520000     -72.08040000
H      -42.13500000     -31.97950000     -72.42300000
H      -42.87940000     -33.53010000     -72.95980000
C      -46.73150000     -33.27890000     -69.46840000
H      -47.80000000     -33.45470000     -69.20930000
H      -46.55150000     -33.70080000     -70.38970000
C      -46.48950000     -31.73380000     -69.49050000
H      -47.08850000     -31.26780000     -68.69160000
H      -45.43780000     -31.45800000     -69.39310000
C      -44.06680000     -32.57430000     -71.48640000
H      -43.97760000     -31.80600000     -70.74610000
H      -44.48600000     -33.41170000     -71.00140000
C      -45.03450000     -32.09280000     -72.47810000
C      -44.89590000     -32.14580000     -73.83290000
C      -46.31620000     -31.45620000     -72.10220000
H      -44.04470000     -32.50650000     -74.50650000
C      -47.05760000     -31.03740000     -73.16790000
C      -46.99830000     -31.27610000     -70.82460000
C      -48.20970000     -30.59830000     -70.95870000
S      -46.17400000     -31.23670000     -74.67140000
S      -48.54090000     -30.26620000     -72.71420000
H      -49.02030000     -30.40400000     -70.23160000
