40
Properties=species:S:1:pos:R:3 #=T CELL(abcABC):=T 1.889726e+02=T 90.00000=T Traj:=T positionsangstrom=T Step:=T 0=T Bead:=T pbc="F F F"
C      -45.75080000     -37.26410000     -70.82140000
C      -45.27730000     -36.31430000     -69.86390000
C      -43.97220000     -35.85180000     -70.11850000
C      -43.21720000     -36.17800000     -71.22850000
C      -43.73550000     -37.04000000     -72.17620000
C      -45.03490000     -37.58830000     -71.96830000
H      -46.74900000     -37.70600000     -70.70810000
H      -43.49430000     -35.04720000     -69.49890000
H      -43.14730000     -37.27800000     -73.02270000
H      -45.43150000     -38.23870000     -72.68230000
C      -41.80810000     -35.68640000     -71.30800000
H      -41.53540000     -35.68320000     -72.37410000
H      -41.18980000     -36.37590000     -70.70120000
C      -45.93860000     -35.81020000     -68.61890000
H      -47.01140000     -36.09500000     -68.62530000
H      -45.42710000     -36.26990000     -67.77500000
S      -41.51510000     -33.87970000     -70.84740000
S      -45.71850000     -34.08030000     -68.11390000
C      -42.65580000     -32.97190000     -71.98530000
H      -42.32680000     -31.98100000     -72.15460000
H      -42.66970000     -33.49850000     -72.92060000
C      -46.81190000     -33.09870000     -69.29490000
H      -47.92150000     -33.18690000     -69.12820000
H      -46.59980000     -33.54510000     -70.28640000
C      -46.49430000     -31.63080000     -69.41120000
H      -46.97010000     -31.04040000     -68.59130000
H      -45.41560000     -31.42540000     -69.25930000
C      -44.11920000     -32.75220000     -71.49120000
H      -44.08960000     -32.10770000     -70.53820000
H      -44.56480000     -33.75670000     -71.20500000
C      -44.99900000     -32.04050000     -72.48520000
C      -45.01720000     -32.02600000     -73.88230000
C      -46.31230000     -31.41580000     -72.03940000
H      -44.19750000     -32.38150000     -74.52900000
C      -47.15780000     -31.05400000     -73.10100000
C      -46.94470000     -31.18920000     -70.75480000
C      -48.10020000     -30.43200000     -70.94040000
S      -46.45120000     -31.37380000     -74.68490000
S      -48.60940000     -30.17260000     -72.54720000
H      -48.88410000     -30.25500000     -70.19630000
