40
Properties=species:S:1:pos:R:3 #=T CELL(abcABC):=T 1.889726e+02=T 90.00000=T Traj:=T positionsangstrom=T Step:=T 0=T Bead:=T pbc="F F F"
C      -46.09930000     -36.87650000     -70.96760000
C      -45.16080000     -36.34940000     -69.99590000
C      -43.85130000     -35.92310000     -70.49220000
C      -43.55650000     -36.03400000     -71.83210000
C      -44.54610000     -36.41930000     -72.75760000
C      -45.74450000     -37.01550000     -72.31930000
H      -47.08780000     -37.22420000     -70.67060000
H      -43.08210000     -35.52260000     -69.91550000
H      -44.23550000     -36.57650000     -73.80180000
H      -46.47830000     -37.40970000     -73.03770000
C      -42.10010000     -35.83270000     -72.26130000
H      -41.94150000     -36.26000000     -73.24380000
H      -41.46420000     -36.35420000     -71.50670000
C      -45.47910000     -36.35320000     -68.54240000
H      -46.34800000     -36.95770000     -68.43580000
H      -44.71100000     -36.82480000     -67.83860000
S      -41.45840000     -34.08490000     -72.40710000
S      -45.76430000     -34.65630000     -67.70290000
C      -42.96420000     -33.23690000     -72.98060000
H      -42.68760000     -32.44230000     -73.58400000
H      -43.59340000     -34.03040000     -73.53790000
C      -46.61190000     -33.66590000     -69.03410000
H      -47.69100000     -33.37490000     -68.81720000
H      -46.63470000     -34.22730000     -69.88700000
C      -45.87010000     -32.33930000     -69.23010000
H      -45.83360000     -31.64520000     -68.36780000
H      -44.84760000     -32.54290000     -69.37710000
C      -43.83200000     -32.65500000     -71.88080000
H      -43.32010000     -31.99520000     -71.21410000
H      -44.31870000     -33.46110000     -71.33440000
C      -45.03100000     -31.84040000     -72.45550000
C      -45.10710000     -31.41920000     -73.73510000
C      -46.13260000     -31.34760000     -71.63710000
H      -44.50380000     -31.66170000     -74.57980000
C      -47.03540000     -30.62150000     -72.36870000
C      -46.63280000     -31.62080000     -70.28390000
C      -47.79670000     -30.98560000     -70.05250000
S      -46.59280000     -30.46560000     -74.05320000
S      -48.41870000     -30.11660000     -71.40130000
H      -48.32400000     -30.90310000     -69.11820000
