40
Properties=species:S:1:pos:R:3 #=T CELL(abcABC):=T 1.889726e+02=T 90.00000=T Traj:=T positionsangstrom=T Step:=T 0=T Bead:=T pbc="F F F"
C      -45.88260000     -36.93480000     -70.30800000
C      -45.19440000     -36.35460000     -69.21890000
C      -43.89220000     -35.87400000     -69.41340000
C      -43.24460000     -36.09490000     -70.65580000
C      -43.95940000     -36.72370000     -71.68330000
C      -45.28660000     -37.13230000     -71.50160000
H      -46.90930000     -37.16520000     -70.09320000
H      -43.42670000     -35.11610000     -68.76430000
H      -43.31590000     -36.97730000     -72.53970000
H      -45.88590000     -37.54460000     -72.30680000
C      -41.84250000     -35.69020000     -70.79230000
H      -41.38150000     -36.21100000     -71.65570000
H      -41.31160000     -35.85170000     -69.80390000
C      -45.89520000     -35.87230000     -67.92840000
H      -46.86320000     -36.45110000     -67.83240000
H      -45.26200000     -35.79470000     -67.02780000
S      -41.48990000     -33.71780000     -70.93510000
S      -46.43090000     -34.08640000     -67.87170000
C      -42.58790000     -32.94520000     -72.39190000
H      -42.19990000     -31.93980000     -72.40190000
H      -42.34270000     -33.46950000     -73.31060000
C      -46.64390000     -33.71910000     -69.59340000
H      -47.55410000     -34.17790000     -69.89550000
H      -45.89430000     -34.22690000     -70.15250000
C      -46.58660000     -32.19440000     -69.84320000
H      -47.10450000     -31.72440000     -69.01740000
H      -45.57640000     -31.84660000     -69.77470000
C      -44.06940000     -32.96700000     -71.94860000
H      -44.10920000     -32.65180000     -70.83830000
H      -44.44390000     -34.02250000     -72.01500000
C      -44.92770000     -32.07980000     -72.83470000
C      -44.57810000     -31.58160000     -74.08520000
C      -46.26300000     -31.67350000     -72.38820000
H      -43.64670000     -31.65880000     -74.60610000
C      -46.88940000     -30.96350000     -73.40620000
C      -47.07850000     -31.79890000     -71.21590000
C      -48.30320000     -31.21550000     -71.37430000
S      -45.95520000     -30.67460000     -74.81220000
S      -48.54080000     -30.41380000     -72.95900000
H      -49.14650000     -31.04090000     -70.71770000
