40
Properties=species:S:1:pos:R:3 #=T CELL(abcABC):=T 1.889726e+02=T 90.00000=T Traj:=T positionsangstrom=T Step:=T 0=T Bead:=T pbc="F F F"
C      -45.93390000     -37.02890000     -70.67400000
C      -45.41690000     -36.19440000     -69.65820000
C      -44.08610000     -35.84780000     -69.69620000
C      -43.16910000     -36.14890000     -70.67270000
C      -43.71560000     -36.96430000     -71.73360000
C      -45.09900000     -37.31170000     -71.75550000
H      -46.98360000     -37.29030000     -70.72020000
H      -43.78770000     -35.15920000     -68.90640000
H      -42.99610000     -37.26500000     -72.55590000
H      -45.49300000     -37.92180000     -72.54840000
C      -41.75870000     -35.67210000     -70.69000000
H      -41.26100000     -36.07970000     -71.53070000
H      -41.20900000     -35.91990000     -69.84620000
C      -46.21920000     -35.89290000     -68.40850000
H      -47.08970000     -36.55720000     -68.43490000
H      -45.61710000     -36.17030000     -67.59400000
S      -41.41380000     -33.74660000     -70.77730000
S      -46.67870000     -34.15580000     -68.01810000
C      -42.63310000     -33.28140000     -72.14130000
H      -42.27080000     -32.30840000     -72.33360000
H      -42.63110000     -33.93240000     -73.03160000
C      -47.08720000     -33.44650000     -69.69410000
H      -48.13220000     -33.48540000     -69.94430000
H      -46.60720000     -33.99020000     -70.53470000
C      -46.73750000     -32.00510000     -69.69720000
H      -47.33840000     -31.53630000     -68.89300000
H      -45.66560000     -31.78860000     -69.32850000
C      -44.13710000     -33.06910000     -71.68190000
H      -44.24560000     -32.65270000     -70.64310000
H      -44.68230000     -34.07220000     -71.53600000
C      -44.91840000     -32.16750000     -72.58950000
C      -44.54760000     -31.82750000     -73.85350000
C      -46.19920000     -31.63940000     -72.23870000
H      -43.59370000     -32.03690000     -74.34340000
C      -46.79090000     -30.92580000     -73.36110000
C      -47.02420000     -31.37300000     -71.01860000
C      -48.13010000     -30.64960000     -71.31860000
S      -45.76600000     -31.00170000     -74.75300000
S      -48.31400000     -30.11100000     -72.90030000
H      -48.83740000     -30.20870000     -70.57170000
