40
Properties=species:S:1:pos:R:3 #=T CELL(abcABC):=T 1.889726e+02=T 90.00000=T Traj:=T positionsangstrom=T Step:=T 0=T Bead:=T pbc="F F F"
C      -45.72100000     -37.25610000     -70.48600000
C      -45.11910000     -36.24010000     -69.66020000
C      -43.93660000     -35.68480000     -70.05930000
C      -43.26360000     -36.13410000     -71.14110000
C      -43.81370000     -37.09840000     -71.96430000
C      -45.04810000     -37.72290000     -71.60760000
H      -46.72570000     -37.60110000     -70.21150000
H      -43.49500000     -34.92730000     -69.52090000
H      -43.16710000     -37.65150000     -72.65580000
H      -45.38600000     -38.53430000     -72.28490000
C      -41.84530000     -35.62600000     -71.41840000
H      -41.49730000     -35.79350000     -72.45460000
H      -41.17250000     -36.23960000     -70.80920000
C      -45.82030000     -35.89150000     -68.37000000
H      -46.86520000     -36.18230000     -68.27460000
H      -45.17760000     -36.23570000     -67.56290000
S      -41.46820000     -33.86550000     -70.84260000
S      -46.01290000     -34.05430000     -67.96500000
C      -42.67410000     -32.95750000     -71.98110000
H      -42.08020000     -32.06750000     -72.28590000
H      -42.71730000     -33.55130000     -72.85670000
C      -46.86580000     -33.40800000     -69.49610000
H      -47.89180000     -33.87060000     -69.56630000
H      -46.36260000     -33.88630000     -70.43800000
C      -46.83640000     -31.77500000     -69.56810000
H      -47.44970000     -31.30030000     -68.80240000
H      -45.80860000     -31.52490000     -69.37280000
C      -44.04470000     -32.50760000     -71.47660000
H      -43.87670000     -31.82160000     -70.63780000
H      -44.45630000     -33.46950000     -71.03070000
C      -44.98940000     -31.87620000     -72.41570000
C      -44.78560000     -31.85130000     -73.78350000
C      -46.32580000     -31.43490000     -72.10290000
H      -43.89950000     -32.35330000     -74.22430000
C      -46.99460000     -30.90760000     -73.21960000
C      -47.15530000     -31.29040000     -70.92500000
C      -48.38270000     -30.69800000     -71.23210000
S      -46.18250000     -31.28030000     -74.70510000
S      -48.54620000     -30.25910000     -72.92130000
H      -49.00500000     -30.16870000     -70.47940000
