40
Properties=species:S:1:pos:R:3 #=T CELL(abcABC):=T 1.889726e+02=T 90.00000=T Traj:=T positionsangstrom=T Step:=T 0=T Bead:=T pbc="F F F"
C      -44.79840000     -34.87570000     -67.81680000
C      -45.28110000     -34.89820000     -69.12770000
C      -44.42320000     -34.62740000     -70.21330000
C      -43.06180000     -34.39040000     -70.02930000
C      -42.59800000     -34.41870000     -68.73020000
C      -43.43360000     -34.79590000     -67.64340000
H      -45.44630000     -35.14750000     -67.04890000
H      -44.73510000     -34.79120000     -71.24990000
H      -41.46090000     -34.33700000     -68.52510000
H      -42.98310000     -34.88480000     -66.65780000
C      -42.12090000     -34.00760000     -71.16990000
H      -42.49580000     -34.37990000     -72.12920000
H      -41.12430000     -34.40920000     -71.03860000
C      -46.78040000     -34.99250000     -69.43600000
H      -46.88900000     -35.08030000     -70.51010000
H      -47.21960000     -35.83270000     -68.92210000
S      -41.80700000     -32.11480000     -71.47430000
S      -47.69050000     -33.46330000     -68.86750000
C      -43.49360000     -31.29940000     -71.02240000
H      -43.84480000     -31.99930000     -70.24080000
H      -43.23870000     -30.36770000     -70.43450000
C      -46.74600000     -32.06300000     -69.54770000
H      -45.74810000     -32.45630000     -69.79840000
H      -46.58840000     -31.35280000     -68.75390000
C      -47.38880000     -31.50320000     -70.77440000
H      -48.35740000     -31.07700000     -70.57900000
H      -46.79680000     -30.68620000     -71.20820000
C      -44.41350000     -30.86740000     -72.26530000
H      -43.80030000     -30.31340000     -73.04720000
H      -45.30620000     -30.20700000     -72.13280000
C      -44.94800000     -32.03730000     -73.06510000
C      -44.25540000     -32.72600000     -74.07210000
C      -46.23820000     -32.68340000     -72.83420000
H      -43.36590000     -32.33970000     -74.57810000
C      -46.53640000     -33.72200000     -73.75580000
C      -47.35900000     -32.51950000     -71.94950000
C      -48.41160000     -33.46680000     -72.14450000
S      -45.14520000     -34.01260000     -74.82100000
S      -48.02090000     -34.53700000     -73.42600000
H      -49.09400000     -33.71300000     -71.34350000
