40
Properties=species:S:1:pos:R:3 #=T CELL(abcABC):=T 1.889726e+02=T 90.00000=T Traj:=T positionsangstrom=T Step:=T 0=T Bead:=T pbc="F F F"
C      -44.70950000     -35.15810000     -68.02050000
C      -45.24910000     -34.82170000     -69.25470000
C      -44.36880000     -34.41560000     -70.23420000
C      -42.99160000     -34.14850000     -70.04440000
C      -42.53060000     -34.34400000     -68.75160000
C      -43.35330000     -34.90140000     -67.74270000
H      -45.26250000     -35.56960000     -67.20730000
H      -44.72900000     -34.10390000     -71.19750000
H      -41.45440000     -34.18580000     -68.47860000
H      -42.86910000     -35.13040000     -66.89120000
C      -42.06910000     -33.97360000     -71.20520000
H      -42.33270000     -34.57200000     -72.15250000
H      -41.03750000     -34.15730000     -70.91250000
C      -46.67040000     -35.00240000     -69.58360000
H      -46.84680000     -34.95850000     -70.70000000
H      -47.17210000     -35.90520000     -69.20540000
S      -41.92100000     -32.06000000     -71.36700000
S      -47.66680000     -33.61890000     -68.86040000
C      -43.57190000     -31.34030000     -71.02010000
H      -44.17850000     -32.10030000     -70.48550000
H      -43.43240000     -30.38590000     -70.54590000
C      -46.82390000     -32.01390000     -69.46010000
H      -45.69340000     -32.19650000     -69.48560000
H      -46.99070000     -31.32900000     -68.62520000
C      -47.51360000     -31.49360000     -70.76610000
H      -48.59870000     -31.30960000     -70.50240000
H      -47.13950000     -30.43350000     -70.95380000
C      -44.35760000     -30.87820000     -72.32400000
H      -43.65950000     -30.26010000     -72.84170000
H      -45.18940000     -30.30150000     -71.88490000
C      -44.90480000     -32.07420000     -73.03870000
C      -44.26670000     -32.69920000     -74.07760000
C      -46.21790000     -32.68730000     -72.75470000
H      -43.38770000     -32.36030000     -74.57090000
C      -46.43650000     -33.82300000     -73.59080000
C      -47.36400000     -32.49500000     -71.88920000
C      -48.44270000     -33.37430000     -72.14650000
S      -45.22120000     -34.03850000     -74.81810000
S      -47.99360000     -34.53400000     -73.42180000
H      -49.41350000     -33.16160000     -71.75880000
