40
Properties=species:S:1:pos:R:3 #=T CELL(abcABC):=T 1.889726e+02=T 90.00000=T Traj:=T positionsangstrom=T Step:=T 0=T Bead:=T pbc="F F F"
C      -45.68260000     -37.04230000     -70.24070000
C      -45.07590000     -36.19000000     -69.31720000
C      -43.82660000     -35.67290000     -69.61290000
C      -43.22620000     -35.97810000     -70.84790000
C      -43.84990000     -36.94680000     -71.68970000
C      -45.16620000     -37.37680000     -71.47720000
H      -46.70960000     -37.35100000     -69.99970000
H      -43.31350000     -35.07770000     -68.79610000
H      -43.20330000     -37.14100000     -72.55740000
H      -45.77880000     -37.95610000     -72.15230000
C      -41.81610000     -35.54360000     -71.19790000
H      -41.53520000     -35.94850000     -72.18230000
H      -41.04810000     -35.99050000     -70.58480000
C      -45.82270000     -35.94360000     -68.03880000
H      -46.57080000     -36.73250000     -67.96580000
H      -45.20200000     -36.05640000     -67.16150000
S      -41.38560000     -33.80130000     -71.10460000
S      -46.42450000     -34.16960000     -67.87950000
C      -42.59300000     -32.98150000     -72.19730000
H      -42.10520000     -32.07660000     -72.49150000
H      -42.56810000     -33.62140000     -73.13130000
C      -46.90700000     -33.60330000     -69.57250000
H      -48.02110000     -33.80800000     -69.75050000
H      -46.28400000     -34.03220000     -70.40030000
C      -46.90510000     -32.05590000     -69.59400000
H      -47.63420000     -31.62620000     -68.95110000
H      -45.90860000     -31.70390000     -69.23230000
C      -44.07420000     -32.70260000     -71.70220000
H      -43.97610000     -32.24490000     -70.75540000
H      -44.52980000     -33.62940000     -71.51900000
C      -44.95260000     -31.96400000     -72.63420000
C      -44.66220000     -31.75890000     -73.93930000
C      -46.28430000     -31.46970000     -72.21760000
H      -43.78680000     -31.98630000     -74.48130000
C      -46.89790000     -30.90980000     -73.36380000
C      -47.17820000     -31.49480000     -71.00940000
C      -48.37120000     -30.92530000     -71.31250000
S      -45.94830000     -30.95830000     -74.78650000
S      -48.56420000     -30.43090000     -73.03830000
H      -49.20670000     -30.97380000     -70.66070000
