40
Properties=species:S:1:pos:R:3 #=T CELL(abcABC):=T 1.889726e+02=T 90.00000=T Traj:=T positionsangstrom=T Step:=T 0=T Bead:=T pbc="F F F"
C      -45.51960000     -34.35040000     -67.69060000
C      -45.89110000     -34.29530000     -69.04410000
C      -45.00270000     -34.72580000     -70.03930000
C      -43.68510000     -35.04490000     -69.68710000
C      -43.29580000     -35.05860000     -68.33540000
C      -44.24640000     -34.74140000     -67.33390000
H      -46.12380000     -33.87810000     -66.91210000
H      -45.30850000     -34.67430000     -71.11030000
H      -42.33060000     -35.31910000     -68.09810000
H      -43.93790000     -34.69780000     -66.31150000
C      -42.69820000     -35.29840000     -70.80060000
H      -43.27660000     -35.64180000     -71.72120000
H      -42.01150000     -36.16680000     -70.60130000
C      -47.31090000     -33.94760000     -69.34920000
H      -47.61790000     -34.12390000     -70.38430000
H      -48.01880000     -34.31540000     -68.64640000
S      -41.70490000     -33.83400000     -71.19790000
S      -47.55140000     -32.07810000     -69.12310000
C      -42.87460000     -32.47300000     -71.09140000
H      -43.75750000     -32.80570000     -70.54950000
H      -42.42200000     -31.73130000     -70.46660000
C      -46.14360000     -31.14530000     -69.89950000
H      -45.22690000     -31.68490000     -69.98250000
H      -45.92060000     -30.28540000     -69.28870000
C      -46.47870000     -30.61620000     -71.39050000
H      -47.44940000     -30.10590000     -71.39870000
H      -45.73180000     -29.87370000     -71.84180000
C      -43.33990000     -31.87730000     -72.44750000
H      -42.48340000     -31.89080000     -73.17700000
H      -43.81810000     -30.83870000     -72.30510000
C      -44.38390000     -32.73150000     -73.09470000
C      -43.97320000     -33.75380000     -73.85270000
C      -45.81020000     -32.53750000     -73.06960000
H      -42.97320000     -33.96020000     -74.18330000
C      -46.46350000     -33.48140000     -73.85750000
C      -46.76180000     -31.77400000     -72.28730000
C      -48.09200000     -32.14900000     -72.43740000
S      -45.38960000     -34.61190000     -74.57760000
S      -48.16900000     -33.55180000     -73.62260000
H      -49.04520000     -31.75900000     -72.05150000
