40
Properties=species:S:1:pos:R:3 #=T CELL(abcABC):=T 1.889726e+02=T 90.00000=T Traj:=T positionsangstrom=T Step:=T 0=T Bead:=T pbc="F F F"
C      -45.72520000     -34.07960000     -67.65440000
C      -45.97440000     -34.03570000     -69.08340000
C      -44.97920000     -34.41960000     -69.93940000
C      -43.76920000     -34.97000000     -69.48880000
C      -43.57150000     -35.09570000     -68.11460000
C      -44.51630000     -34.54770000     -67.20740000
H      -46.44070000     -33.71030000     -66.92230000
H      -45.06660000     -34.48230000     -71.03480000
H      -42.59050000     -35.43990000     -67.72590000
H      -44.28260000     -34.70860000     -66.18790000
C      -42.67870000     -35.43290000     -70.37980000
H      -43.14520000     -36.04070000     -71.14200000
H      -42.00480000     -36.03620000     -69.80380000
C      -47.33860000     -33.68400000     -69.62020000
H      -47.50450000     -34.03060000     -70.62510000
H      -48.15230000     -34.09300000     -69.01730000
S      -41.61120000     -33.95770000     -71.10600000
S      -47.55850000     -31.84740000     -69.28730000
C      -42.71740000     -32.53200000     -70.95350000
H      -43.42920000     -32.90630000     -70.24000000
H      -42.18420000     -31.67940000     -70.49200000
C      -46.17340000     -31.06430000     -70.12230000
H      -45.37440000     -31.77830000     -70.12100000
H      -45.99940000     -30.18960000     -69.58210000
C      -46.51280000     -30.63920000     -71.48540000
H      -47.42930000     -29.99400000     -71.53730000
H      -45.71610000     -29.96680000     -71.77570000
C      -43.32500000     -32.03470000     -72.23970000
H      -42.44610000     -31.98620000     -72.95720000
H      -43.56660000     -31.00050000     -72.05780000
C      -44.35310000     -32.94670000     -72.93260000
C      -43.92910000     -34.07550000     -73.58370000
C      -45.79910000     -32.67640000     -73.07200000
H      -42.95150000     -34.54630000     -73.68120000
C      -46.39010000     -33.66770000     -73.82890000
C      -46.76660000     -31.76570000     -72.52340000
C      -48.09380000     -32.11010000     -72.79430000
S      -45.28700000     -34.83330000     -74.48330000
S      -48.12570000     -33.51360000     -73.94860000
H      -48.91540000     -31.40370000     -72.60770000
