40
Properties=species:S:1:pos:R:3 #=T CELL(abcABC):=T 1.889726e+02=T 90.00000=T Traj:=T positionsangstrom=T Step:=T 0=T Bead:=T pbc="F F F"
C      -43.11030000     -33.80990000     -74.44380000
C      -44.37880000     -34.41340000     -74.35720000
C      -45.54670000     -33.70400000     -74.60740000
C      -45.48420000     -32.27940000     -74.69560000
C      -44.21820000     -31.66150000     -74.85760000
C      -43.07580000     -32.46400000     -74.85080000
H      -42.28670000     -34.34860000     -73.94040000
H      -46.50280000     -34.18280000     -74.57430000
H      -44.18160000     -30.68310000     -75.13150000
H      -42.09410000     -31.96540000     -74.91190000
C      -46.72580000     -31.47830000     -74.67490000
H      -47.49750000     -32.19830000     -74.91410000
H      -46.61300000     -30.61690000     -75.37220000
C      -44.52130000     -35.90200000     -74.04720000
H      -45.64860000     -36.04440000     -73.79030000
H      -44.34600000     -36.46190000     -74.93620000
S      -47.02950000     -30.67500000     -73.04330000
S      -43.47920000     -36.55080000     -72.66280000
C      -47.75490000     -32.13150000     -72.07760000
H      -48.49890000     -31.72190000     -71.35590000
H      -48.29470000     -32.76470000     -72.76820000
C      -43.87620000     -35.36770000     -71.34480000
H      -43.92710000     -34.32440000     -71.70650000
H      -42.96550000     -35.35310000     -70.73360000
C      -45.08580000     -35.72330000     -70.48700000
H      -46.03710000     -35.64930000     -71.03500000
H      -44.98190000     -36.79080000     -70.13290000
C      -46.71400000     -32.98440000     -71.41950000
H      -45.75930000     -32.94970000     -71.99880000
H      -46.91680000     -34.08970000     -71.47790000
C      -46.40080000     -32.56220000     -69.96910000
C      -46.64290000     -31.36120000     -69.39480000
C      -45.77600000     -33.57160000     -69.08080000
H      -47.02870000     -30.51180000     -69.81570000
C      -45.62870000     -33.06590000     -67.78530000
C      -45.09640000     -34.85280000     -69.19960000
C      -44.62350000     -35.27260000     -68.01210000
S      -46.23540000     -31.38130000     -67.63070000
S      -44.73850000     -34.08150000     -66.67090000
H      -44.22170000     -36.19500000     -67.75800000
