40
Properties=species:S:1:pos:R:3 #=T CELL(abcABC):=T 1.889726e+02=T 90.00000=T Traj:=T positionsangstrom=T Step:=T 0=T Bead:=T pbc="F F F"
C      -44.83900000     -34.68340000     -67.60550000
C      -45.68460000     -34.59450000     -68.75990000
C      -45.02940000     -34.56170000     -69.99370000
C      -43.69070000     -34.89900000     -70.12580000
C      -42.86470000     -35.08860000     -68.98690000
C      -43.46900000     -34.92690000     -67.70180000
H      -45.13120000     -34.39100000     -66.60100000
H      -45.56470000     -34.34660000     -70.92120000
H      -41.80970000     -35.06840000     -69.19490000
H      -42.81830000     -35.00200000     -66.85560000
C      -43.04750000     -34.92110000     -71.48260000
H      -43.87990000     -34.88210000     -72.21040000
H      -42.42470000     -35.74370000     -71.69500000
C      -47.17770000     -34.27660000     -68.75920000
H      -47.54110000     -34.49990000     -69.79720000
H      -47.75720000     -34.94320000     -68.13670000
S      -41.94140000     -33.35760000     -71.76210000
S      -47.63710000     -32.49270000     -68.42320000
C      -43.04230000     -31.91010000     -71.28110000
H      -43.81910000     -32.24200000     -70.57380000
H      -42.61480000     -31.18330000     -70.59130000
C      -46.45600000     -31.55890000     -69.41630000
H      -45.52640000     -32.13030000     -69.40020000
H      -46.26180000     -30.75650000     -68.67500000
C      -46.86890000     -31.23770000     -70.85480000
H      -47.85070000     -30.77740000     -70.84510000
H      -46.28660000     -30.39250000     -71.12840000
C      -43.75510000     -31.17500000     -72.43210000
H      -42.99860000     -30.67450000     -73.04760000
H      -44.42620000     -30.45560000     -72.04050000
C      -44.51490000     -32.16670000     -73.27740000
C      -44.09060000     -32.76850000     -74.38110000
C      -45.90430000     -32.57910000     -72.86210000
H      -43.19670000     -32.53010000     -74.93120000
C      -46.39570000     -33.56450000     -73.76690000
C      -46.91360000     -32.37170000     -71.82170000
C      -48.10380000     -33.00460000     -71.99060000
S      -45.24290000     -33.99780000     -75.02980000
S      -47.99710000     -34.14480000     -73.41890000
H      -48.90290000     -32.94350000     -71.27960000
