40
Properties=species:S:1:pos:R:3 #=T CELL(abcABC):=T 1.889726e+02=T 90.00000=T Traj:=T positionsangstrom=T Step:=T 0=T Bead:=T pbc="F F F"
C      -45.61770000     -34.25220000     -67.71220000
C      -45.93010000     -34.28750000     -69.10200000
C      -45.01710000     -34.88330000     -69.94440000
C      -43.72660000     -35.15560000     -69.53940000
C      -43.35950000     -35.02140000     -68.09420000
C      -44.38500000     -34.70000000     -67.26900000
H      -46.40540000     -34.07940000     -66.96000000
H      -45.23630000     -34.90690000     -71.06210000
H      -42.40130000     -35.24040000     -67.81030000
H      -44.13750000     -34.47060000     -66.21930000
C      -42.74170000     -35.42720000     -70.58800000
H      -43.12560000     -35.88880000     -71.46020000
H      -41.84350000     -36.06530000     -70.31740000
C      -47.23320000     -33.64080000     -69.60730000
H      -47.05730000     -33.62140000     -70.68740000
H      -48.10150000     -34.33350000     -69.48830000
S      -41.77430000     -33.89640000     -71.14490000
S      -47.57610000     -31.97450000     -69.09160000
C      -42.87120000     -32.40010000     -71.03660000
H      -43.70800000     -32.63290000     -70.33930000
H      -42.37810000     -31.51680000     -70.64410000
C      -46.13620000     -31.06590000     -70.05040000
H      -45.18750000     -31.65340000     -70.02450000
H      -45.86910000     -30.14040000     -69.39960000
C      -46.36080000     -30.61800000     -71.51240000
H      -47.22630000     -29.95280000     -71.50260000
H      -45.40470000     -30.13520000     -71.72580000
C      -43.37460000     -31.90250000     -72.36040000
H      -42.61630000     -31.60320000     -73.05780000
H      -43.79640000     -30.97140000     -72.11290000
C      -44.35380000     -32.79420000     -73.10290000
C      -43.96970000     -33.79320000     -73.92980000
C      -45.79330000     -32.70410000     -72.93650000
H      -42.96700000     -34.22740000     -74.02290000
C      -46.43440000     -33.69150000     -73.68230000
C      -46.73890000     -31.73110000     -72.45930000
C      -48.05320000     -32.06010000     -72.80110000
S      -45.28900000     -34.76110000     -74.46870000
S      -48.15980000     -33.42150000     -73.79490000
H      -48.99560000     -31.50360000     -72.63130000
