40
Properties=species:S:1:pos:R:3 #=T CELL(abcABC):=T 1.889726e+02=T 90.00000=T Traj:=T positionsangstrom=T Step:=T 0=T Bead:=T pbc="F F F"
C      -45.96480000     -31.09260000     -72.31930000
C      -45.06030000     -30.77220000     -71.23470000
C      -45.40950000     -31.34180000     -69.94080000
C      -46.61780000     -32.09750000     -69.79910000
C      -47.51570000     -32.18760000     -70.85150000
C      -47.14490000     -31.77860000     -72.16650000
H      -45.68050000     -30.71430000     -73.34670000
H      -44.66310000     -31.31960000     -69.10970000
H      -48.40680000     -32.80130000     -70.72880000
H      -47.70560000     -32.10830000     -73.04500000
C      -46.97450000     -32.50790000     -68.35620000
H      -48.06390000     -32.64880000     -68.31670000
H      -46.69150000     -31.73400000     -67.65910000
C      -43.71110000     -30.13120000     -71.45540000
H      -43.82040000     -29.10030000     -71.76110000
H      -43.14260000     -30.06550000     -70.51050000
S      -46.24440000     -34.16060000     -67.72040000
S      -42.71930000     -31.17230000     -72.72270000
C      -44.57330000     -34.22580000     -68.43090000
H      -44.26990000     -33.18410000     -68.71630000
H      -43.88960000     -34.46040000     -67.51800000
C      -42.36040000     -32.65630000     -71.53600000
H      -43.13410000     -32.54300000     -70.74630000
H      -41.35550000     -32.41160000     -71.13420000
C      -42.46780000     -34.06040000     -72.11340000
H      -41.85840000     -34.19690000     -73.02400000
H      -42.04150000     -34.76170000     -71.46040000
C      -44.33380000     -35.25770000     -69.54980000
H      -44.20700000     -36.24980000     -68.95430000
H      -43.36510000     -34.97740000     -69.98140000
C      -45.35970000     -35.21240000     -70.62530000
C      -46.69950000     -35.47750000     -70.45530000
C      -45.09010000     -34.87740000     -71.95690000
H      -47.10300000     -35.79690000     -69.47500000
C      -46.13510000     -35.00360000     -72.85590000
C      -43.87130000     -34.35510000     -72.63490000
C      -44.18790000     -33.92500000     -73.91380000
S      -47.64720000     -35.43420000     -71.92780000
S      -45.78220000     -34.48260000     -74.43210000
H      -43.53070000     -33.56350000     -74.72900000
