40
Properties=species:S:1:pos:R:3 #=T CELL(abcABC):=T 1.889726e+02=T 90.00000=T Traj:=T positionsangstrom=T Step:=T 0=T Bead:=T pbc="F F F"
C      -46.11350000     -33.66720000     -67.65260000
C      -46.36610000     -33.72000000     -69.03180000
C      -45.31480000     -34.25700000     -69.81800000
C      -44.07890000     -34.70160000     -69.31640000
C      -43.90540000     -34.73640000     -67.88330000
C      -44.94510000     -34.23030000     -67.11000000
H      -46.90090000     -33.20490000     -67.11680000
H      -45.43940000     -34.23150000     -70.88190000
H      -43.10790000     -35.21260000     -67.38710000
H      -44.86320000     -34.09770000     -66.02770000
C      -43.11730000     -35.33530000     -70.24920000
H      -43.58130000     -35.67130000     -71.17930000
H      -42.60020000     -36.23160000     -69.74080000
C      -47.65150000     -33.14170000     -69.53080000
H      -47.84000000     -33.46950000     -70.53930000
H      -48.49060000     -33.57620000     -69.04670000
S      -41.61940000     -34.20390000     -70.61550000
S      -47.81920000     -31.33730000     -69.49040000
C      -42.51330000     -32.58480000     -70.91570000
H      -43.32590000     -32.51610000     -70.18400000
H      -41.68360000     -31.90780000     -70.63110000
C      -46.17920000     -30.88380000     -70.25660000
H      -45.41600000     -31.59190000     -69.91720000
H      -45.98460000     -29.87950000     -69.81960000
C      -46.11460000     -30.78030000     -71.81850000
H      -46.87770000     -30.06240000     -72.14590000
H      -45.12820000     -30.42960000     -72.06390000
C      -43.06500000     -32.34070000     -72.33600000
H      -42.17420000     -32.37730000     -72.94700000
H      -43.52630000     -31.38290000     -72.46110000
C      -44.10350000     -33.24070000     -72.96370000
C      -43.73940000     -34.38890000     -73.65450000
C      -45.52600000     -33.01090000     -73.12630000
H      -42.69320000     -34.72050000     -73.90410000
C      -46.10770000     -33.95940000     -73.89550000
C      -46.41940000     -31.97250000     -72.67990000
C      -47.73220000     -32.18560000     -73.10120000
S      -45.10670000     -35.19340000     -74.45680000
S      -47.86460000     -33.71380000     -74.11060000
H      -48.53310000     -31.63230000     -72.58370000
