40
Properties=species:S:1:pos:R:3 #=T CELL(abcABC):=T 1.889726e+02=T 90.00000=T Traj:=T positionsangstrom=T Step:=T 0=T Bead:=T pbc="F F F"
C      -45.75580000     -34.20710000     -67.55110000
C      -46.02500000     -34.06880000     -68.87450000
C      -45.01590000     -34.51390000     -69.78180000
C      -43.78320000     -34.99790000     -69.33940000
C      -43.44950000     -34.88650000     -68.00340000
C      -44.47400000     -34.50480000     -67.11300000
H      -46.39240000     -33.85340000     -66.77270000
H      -45.23850000     -34.50220000     -70.78730000
H      -42.37600000     -35.13400000     -67.65860000
H      -44.26460000     -34.66430000     -66.05640000
C      -42.77200000     -35.34780000     -70.40860000
H      -43.30360000     -35.66250000     -71.40470000
H      -42.10350000     -36.20580000     -70.15950000
C      -47.35370000     -33.51630000     -69.52740000
H      -47.39910000     -33.81400000     -70.60620000
H      -48.25510000     -33.86850000     -68.93510000
S      -41.63540000     -34.01160000     -70.92060000
S      -47.70840000     -31.70230000     -69.46190000
C      -42.57290000     -32.43800000     -70.96270000
H      -43.32980000     -32.43660000     -70.17200000
H      -41.86570000     -31.69380000     -70.67150000
C      -46.28070000     -30.87100000     -70.20610000
H      -45.26470000     -31.32690000     -69.98060000
H      -46.13320000     -29.93830000     -69.67690000
C      -46.43070000     -30.61360000     -71.72810000
H      -47.18830000     -29.80590000     -71.78590000
H      -45.53150000     -30.12930000     -72.12380000
C      -43.34820000     -32.02320000     -72.28650000
H      -42.59440000     -31.96960000     -73.04230000
H      -43.89930000     -31.09970000     -72.16120000
C      -44.30110000     -32.98360000     -72.98600000
C      -43.96370000     -34.11830000     -73.62270000
C      -45.76990000     -32.74230000     -73.11030000
H      -42.95820000     -34.49030000     -73.76630000
C      -46.37480000     -33.79930000     -73.77300000
C      -46.73830000     -31.77680000     -72.62710000
C      -48.00210000     -32.09010000     -73.10600000
S      -45.22710000     -34.99690000     -74.40590000
S      -48.09550000     -33.59990000     -74.01490000
H      -48.83720000     -31.66400000     -72.64200000
