40
Properties=species:S:1:pos:R:3 #=T CELL(abcABC):=T 1.889726e+02=T 90.00000=T Traj:=T positionsangstrom=T Step:=T 0=T Bead:=T pbc="F F F"
C      -46.51020000     -33.38110000     -67.67610000
C      -46.64150000     -33.69370000     -69.01060000
C      -45.59260000     -34.21600000     -69.72780000
C      -44.43830000     -34.71590000     -69.05770000
C      -44.34680000     -34.50290000     -67.64250000
C      -45.33930000     -33.81330000     -66.97020000
H      -47.26130000     -32.78060000     -67.18990000
H      -45.65840000     -34.33820000     -70.78750000
H      -43.48830000     -34.86280000     -67.12860000
H      -45.21120000     -33.42920000     -65.93280000
C      -43.50440000     -35.58350000     -69.96190000
H      -43.96250000     -36.19730000     -70.66190000
H      -42.95560000     -36.20990000     -69.25170000
C      -47.90320000     -33.19490000     -69.73550000
H      -48.06430000     -33.79070000     -70.70280000
H      -48.81180000     -33.25300000     -69.11040000
S      -42.22930000     -34.44580000     -70.86080000
S      -47.75910000     -31.39040000     -69.95600000
C      -42.84700000     -32.72590000     -70.82070000
H      -43.79680000     -32.69200000     -70.28420000
H      -42.15280000     -32.15190000     -70.19180000
C      -45.99560000     -30.85760000     -70.43010000
H      -45.40630000     -31.71880000     -70.25710000
H      -45.59300000     -30.06790000     -69.78410000
C      -45.92500000     -30.63360000     -71.95930000
H      -46.65020000     -29.92330000     -72.25230000
H      -44.86780000     -30.30790000     -72.07410000
C      -42.89230000     -32.14700000     -72.19900000
H      -41.92770000     -32.25590000     -72.68380000
H      -43.19640000     -31.12880000     -72.31220000
C      -43.75350000     -33.00550000     -73.11810000
C      -43.34410000     -34.18700000     -73.70440000
C      -45.16560000     -32.87920000     -73.20470000
H      -42.36910000     -34.63460000     -73.68770000
C      -45.77470000     -33.94840000     -73.80770000
C      -46.16800000     -31.95770000     -72.67030000
C      -47.44560000     -32.39190000     -72.92810000
S      -44.64020000     -35.15140000     -74.34390000
S      -47.50880000     -33.96190000     -73.83390000
H      -48.37290000     -32.02380000     -72.58610000
