40
Properties=species:S:1:pos:R:3 #=T CELL(abcABC):=T 1.889726e+02=T 90.00000=T Traj:=T positionsangstrom=T Step:=T 0=T Bead:=T pbc="F F F"
C      -43.02410000     -33.79000000     -74.56130000
C      -44.27290000     -34.45750000     -74.47130000
C      -45.49780000     -33.71400000     -74.46360000
C      -45.39010000     -32.32010000     -74.61810000
C      -44.13440000     -31.64990000     -74.74450000
C      -42.92410000     -32.39400000     -74.78860000
H      -42.13540000     -34.34490000     -74.68010000
H      -46.41630000     -34.26950000     -74.34780000
H      -44.22220000     -30.66380000     -74.85570000
H      -42.03190000     -31.87790000     -75.09330000
C      -46.66900000     -31.53890000     -74.71410000
H      -47.46850000     -32.14660000     -75.04190000
H      -46.67340000     -30.72690000     -75.51510000
C      -44.32950000     -35.95500000     -74.28310000
H      -45.35210000     -36.30230000     -74.23590000
H      -43.71220000     -36.42400000     -75.03740000
S      -47.14350000     -30.67730000     -73.15160000
S      -43.61190000     -36.60190000     -72.63730000
C      -47.77080000     -31.97740000     -72.10120000
H      -48.42240000     -31.44220000     -71.35570000
H      -48.52260000     -32.50460000     -72.68670000
C      -43.87320000     -35.43130000     -71.26720000
H      -43.99330000     -34.42900000     -71.62030000
H      -42.90850000     -35.55670000     -70.65090000
C      -45.10580000     -35.69370000     -70.45990000
H      -45.95150000     -35.60000000     -71.15940000
H      -45.16190000     -36.71520000     -70.13010000
C      -46.79720000     -32.84700000     -71.36540000
H      -45.90370000     -32.91880000     -72.04080000
H      -47.20470000     -33.81080000     -71.38940000
C      -46.48850000     -32.57960000     -69.93720000
C      -46.79850000     -31.43150000     -69.21060000
C      -45.69640000     -33.49210000     -69.08000000
H      -47.35880000     -30.61240000     -69.57510000
C      -45.55250000     -32.99260000     -67.77540000
C      -45.14170000     -34.79340000     -69.24280000
C      -44.58950000     -35.26820000     -68.08070000
S      -46.28750000     -31.43330000     -67.53640000
S      -44.67830000     -34.09260000     -66.69850000
H      -43.97220000     -36.12690000     -68.09680000
