40
Properties=species:S:1:pos:R:3 #=T CELL(abcABC):=T 1.889726e+02=T 90.00000=T Traj:=T positionsangstrom=T Step:=T 0=T Bead:=T pbc="F F F"
C      -45.81180000     -33.80620000     -67.53830000
C      -46.23520000     -33.97390000     -68.87670000
C      -45.28170000     -34.50190000     -69.78840000
C      -43.99550000     -34.89690000     -69.38030000
C      -43.69670000     -34.83090000     -68.05430000
C      -44.56060000     -34.25290000     -67.10740000
H      -46.40290000     -33.20990000     -66.82890000
H      -45.52560000     -34.67580000     -70.81590000
H      -42.65550000     -35.12140000     -67.68010000
H      -44.45270000     -34.36840000     -66.03780000
C      -42.94210000     -35.25730000     -70.39330000
H      -43.40160000     -35.55670000     -71.34720000
H      -42.47150000     -36.12340000     -69.99630000
C      -47.58340000     -33.43630000     -69.41350000
H      -47.82000000     -33.83830000     -70.36900000
H      -48.34260000     -33.69570000     -68.68160000
S      -41.73050000     -33.84390000     -70.68770000
S      -47.60690000     -31.51770000     -69.45190000
C      -42.71740000     -32.37430000     -71.10680000
H      -43.57610000     -32.28310000     -70.42240000
H      -42.06500000     -31.49790000     -70.79930000
C      -45.93890000     -31.09830000     -70.37080000
H      -45.34650000     -32.01120000     -70.17210000
H      -45.35500000     -30.33610000     -69.81860000
C      -46.21080000     -30.75440000     -71.80140000
H      -46.87060000     -29.91670000     -71.74290000
H      -45.31190000     -30.23930000     -72.11190000
C      -43.18580000     -32.15500000     -72.59560000
H      -42.38770000     -32.07100000     -73.30160000
H      -43.65240000     -31.17920000     -72.43680000
C      -44.22130000     -33.15430000     -73.07080000
C      -43.86930000     -34.39790000     -73.59090000
C      -45.63380000     -32.87530000     -73.23530000
H      -42.94820000     -34.89300000     -73.41710000
C      -46.30720000     -33.92910000     -73.89820000
C      -46.53150000     -31.91460000     -72.69110000
C      -47.87850000     -32.14190000     -73.02730000
S      -45.23420000     -35.24450000     -74.22330000
S      -48.01330000     -33.60340000     -74.07520000
H      -48.67550000     -31.45740000     -72.92060000
