40
Properties=species:S:1:pos:R:3 #=T CELL(abcABC):=T 1.889726e+02=T 90.00000=T Traj:=T positionsangstrom=T Step:=T 0=T Bead:=T pbc="F F F"
C      -46.46700000     -30.80810000     -72.10060000
C      -45.27800000     -30.54210000     -71.37920000
C      -45.26810000     -30.81850000     -69.96880000
C      -46.38630000     -31.44000000     -69.35940000
C      -47.46660000     -31.84370000     -70.13020000
C      -47.55070000     -31.41620000     -71.47430000
H      -46.46610000     -30.61300000     -73.17540000
H      -44.38740000     -30.67810000     -69.39020000
H      -48.32640000     -32.27630000     -69.56660000
H      -48.41340000     -31.67850000     -72.13420000
C      -46.35470000     -32.08880000     -67.96480000
H      -47.17580000     -31.72770000     -67.40550000
H      -45.46050000     -31.73360000     -67.44110000
C      -43.98830000     -30.00230000     -72.11070000
H      -44.31560000     -29.34900000     -72.97950000
H      -43.43310000     -29.26840000     -71.53160000
S      -46.28360000     -33.95180000     -67.96600000
S      -42.85840000     -31.40090000     -72.79850000
C      -44.59560000     -34.31980000     -68.64560000
H      -44.39730000     -33.50880000     -69.29440000
H      -43.85790000     -34.23320000     -67.83920000
C      -42.67470000     -32.46770000     -71.27150000
H      -43.57180000     -32.41120000     -70.71180000
H      -41.90330000     -32.23760000     -70.53270000
C      -42.58400000     -33.97500000     -71.70890000
H      -41.74510000     -34.13690000     -72.40040000
H      -42.40060000     -34.66100000     -70.86110000
C      -44.68760000     -35.64430000     -69.39730000
H      -45.00690000     -36.50130000     -68.75130000
H      -43.74250000     -36.06450000     -69.66120000
C      -45.55410000     -35.50980000     -70.69560000
C      -46.85740000     -35.99850000     -70.77690000
C      -45.09760000     -34.98110000     -71.91310000
H      -47.36990000     -36.59890000     -70.01970000
C      -45.99620000     -35.04890000     -72.92600000
C      -43.78630000     -34.43360000     -72.42790000
C      -43.74940000     -34.19550000     -73.79940000
S      -47.51460000     -35.80230000     -72.45430000
S      -45.34940000     -34.66480000     -74.45330000
H      -42.95800000     -33.82130000     -74.43130000
