40
Properties=species:S:1:pos:R:3 #=T CELL(abcABC):=T 1.889726e+02=T 90.00000=T Traj:=T positionsangstrom=T Step:=T 0=T Bead:=T pbc="F F F"
C      -46.87200000     -33.20950000     -67.71090000
C      -46.89610000     -33.40060000     -69.05710000
C      -45.77620000     -34.01490000     -69.70370000
C      -44.72430000     -34.49660000     -68.99570000
C      -44.73070000     -34.33150000     -67.57710000
C      -45.77340000     -33.69030000     -66.96350000
H      -47.63360000     -32.60430000     -67.18740000
H      -45.65420000     -34.08370000     -70.84000000
H      -43.99570000     -34.92100000     -66.99160000
H      -45.90020000     -33.71790000     -65.88600000
C      -43.63280000     -35.35090000     -69.56080000
H      -44.14430000     -35.66550000     -70.52530000
H      -43.44550000     -36.22110000     -68.86050000
C      -48.07020000     -32.93860000     -69.89660000
H      -47.99120000     -33.54320000     -70.77260000
H      -49.03730000     -32.92300000     -69.45650000
S      -42.11480000     -34.37160000     -70.10810000
S      -47.89000000     -31.12700000     -70.36800000
C      -42.83840000     -32.81200000     -70.63770000
H      -43.86900000     -32.58490000     -70.30710000
H      -42.30630000     -32.04850000     -70.07940000
C      -46.07210000     -30.80600000     -70.57660000
H      -45.36610000     -31.53020000     -70.05790000
H      -45.86050000     -29.86750000     -70.11280000
C      -45.75290000     -30.76080000     -72.11400000
H      -46.40660000     -30.00900000     -72.57250000
H      -44.70890000     -30.54290000     -72.16800000
C      -42.68410000     -32.49570000     -72.12370000
H      -41.62910000     -32.66180000     -72.42150000
H      -42.95870000     -31.42500000     -72.18610000
C      -43.59710000     -33.37650000     -72.95420000
C      -43.15020000     -34.55470000     -73.55450000
C      -44.96550000     -33.07500000     -73.35120000
H      -42.22850000     -35.00540000     -73.45840000
C      -45.58040000     -34.12250000     -74.04560000
C      -45.93670000     -32.05890000     -72.91900000
C      -47.23070000     -32.44700000     -73.18810000
S      -44.48840000     -35.49740000     -74.25260000
S      -47.33450000     -33.92740000     -74.14960000
H      -48.16590000     -31.97450000     -73.05450000
