40
Properties=species:S:1:pos:R:3 #=T CELL(abcABC):=T 1.889726e+02=T 90.00000=T Traj:=T positionsangstrom=T Step:=T 0=T Bead:=T pbc="F F F"
C      -46.56070000     -33.03810000     -67.82770000
C      -46.85660000     -33.52710000     -69.08070000
C      -45.90960000     -34.31220000     -69.77900000
C      -44.72390000     -34.75810000     -69.14250000
C      -44.47520000     -34.36540000     -67.80760000
C      -45.41020000     -33.51090000     -67.21110000
H      -47.21830000     -32.34370000     -67.27360000
H      -46.06910000     -34.50100000     -70.86020000
H      -43.58190000     -34.79570000     -67.34950000
H      -45.34450000     -33.17450000     -66.15500000
C      -43.75060000     -35.33580000     -70.14430000
H      -44.16650000     -35.35650000     -71.15280000
H      -43.47570000     -36.42980000     -69.98850000
C      -48.09940000     -32.91280000     -69.75710000
H      -48.35770000     -33.44670000     -70.71280000
H      -48.99350000     -32.87940000     -69.11600000
S      -42.15240000     -34.43630000     -70.17550000
S      -47.86060000     -31.07920000     -70.10680000
C      -42.63350000     -32.68280000     -70.66460000
H      -43.55440000     -32.44330000     -70.11710000
H      -41.91280000     -32.04130000     -70.11210000
C      -46.09630000     -30.84840000     -70.58250000
H      -45.44870000     -31.60070000     -70.17980000
H      -45.70790000     -29.94650000     -70.11480000
C      -45.87450000     -30.78310000     -72.09020000
H      -46.58950000     -30.12020000     -72.63940000
H      -44.77800000     -30.53260000     -72.17910000
C      -42.74590000     -32.35160000     -72.14940000
H      -41.69010000     -32.47450000     -72.49320000
H      -43.01470000     -31.30010000     -72.24350000
C      -43.67430000     -33.32260000     -72.81790000
C      -43.22300000     -34.50360000     -73.43310000
C      -45.13020000     -33.16350000     -72.94000000
H      -42.17040000     -34.88910000     -73.50730000
C      -45.68270000     -34.24460000     -73.62660000
C      -46.11390000     -32.13230000     -72.81770000
C      -47.34380000     -32.43330000     -73.33390000
S      -44.56370000     -35.43950000     -74.14480000
S      -47.27590000     -33.90190000     -74.26250000
H      -48.19940000     -31.77940000     -73.46350000
