40
Properties=species:S:1:pos:R:3 #=T CELL(abcABC):=T 1.889726e+02=T 90.00000=T Traj:=T positionsangstrom=T Step:=T 0=T Bead:=T pbc="F F F"
C      -45.48810000     -31.41800000     -72.63570000
C      -44.95350000     -30.81270000     -71.52040000
C      -45.53830000     -30.96840000     -70.24550000
C      -46.76780000     -31.62610000     -70.14380000
C      -47.35410000     -32.18330000     -71.30880000
C      -46.80290000     -31.94630000     -72.54340000
H      -44.96770000     -31.27950000     -73.53770000
H      -45.01240000     -30.52070000     -69.44670000
H      -48.33310000     -32.68810000     -71.27230000
H      -47.26730000     -32.32470000     -73.48210000
C      -47.32820000     -31.90060000     -68.78570000
H      -48.45380000     -31.88540000     -68.76710000
H      -46.98170000     -31.14860000     -68.06810000
C      -43.62780000     -30.11310000     -71.59410000
H      -43.62720000     -29.30960000     -72.39450000
H      -43.48290000     -29.59710000     -70.61490000
S      -47.00410000     -33.64730000     -68.17160000
S      -42.17570000     -31.21830000     -71.81220000
C      -45.19780000     -34.10220000     -68.68360000
H      -44.90550000     -33.43050000     -69.49500000
H      -44.50970000     -33.87730000     -67.79940000
C      -42.29340000     -32.64840000     -70.64560000
H      -42.92610000     -32.42350000     -69.75660000
H      -41.28870000     -32.75970000     -70.11870000
C      -42.68580000     -33.99860000     -71.36180000
H      -41.88100000     -34.24870000     -72.08400000
H      -42.66940000     -34.78610000     -70.57370000
C      -45.09330000     -35.53260000     -69.14890000
H      -45.65020000     -36.15980000     -68.47760000
H      -44.02220000     -35.84150000     -69.13710000
C      -45.67030000     -35.62620000     -70.57500000
C      -46.81930000     -36.27500000     -70.88630000
C      -45.11080000     -34.95880000     -71.74070000
H      -47.40430000     -36.79590000     -70.19710000
C      -45.93160000     -35.14640000     -72.83970000
C      -43.92730000     -34.16620000     -72.11520000
C      -43.95810000     -33.72400000     -73.45180000
S      -47.37330000     -35.98400000     -72.52670000
S      -45.32430000     -34.34140000     -74.31240000
H      -43.18580000     -33.20940000     -73.99500000
