40
Properties=species:S:1:pos:R:3 #=T CELL(abcABC):=T 1.889726e+02=T 90.00000=T Traj:=T positionsangstrom=T Step:=T 0=T Bead:=T pbc="F F F"
C      -46.41480000     -31.34340000     -68.12810000
C      -45.06080000     -31.60980000     -68.23540000
C      -44.34300000     -31.16400000     -69.36860000
C      -45.00250000     -30.37920000     -70.36310000
C      -46.31410000     -30.04600000     -70.18000000
C      -47.03430000     -30.55750000     -69.10330000
H      -47.04070000     -31.68070000     -67.26640000
H      -43.26870000     -31.63670000     -69.59580000
H      -46.85230000     -29.44640000     -70.91490000
H      -48.12640000     -30.46750000     -69.13950000
C      -44.18300000     -29.78730000     -71.46090000
H      -43.16310000     -30.24590000     -71.62480000
H      -44.13580000     -28.66980000     -71.19020000
C      -44.38060000     -32.62300000     -67.38830000
H      -43.29540000     -32.65140000     -67.53360000
H      -44.57730000     -32.42320000     -66.32380000
S      -44.99120000     -29.87270000     -73.09180000
S      -45.01820000     -34.32530000     -67.57260000
C      -45.30490000     -31.71620000     -73.36670000
H      -46.23060000     -32.01380000     -72.88530000
H      -45.40900000     -31.79620000     -74.44380000
C      -44.87320000     -34.66470000     -69.39830000
H      -44.56970000     -35.68780000     -69.52510000
H      -43.96570000     -34.03120000     -69.65850000
C      -46.08980000     -34.21610000     -70.23040000
H      -46.95250000     -34.28470000     -69.54960000
H      -46.07190000     -33.08310000     -70.50910000
C      -44.30030000     -32.63230000     -72.77040000
H      -44.33260000     -32.58910000     -71.69320000
H      -43.26020000     -32.17740000     -73.02120000
C      -44.44970000     -34.03150000     -73.21840000
C      -43.89040000     -34.56780000     -74.34390000
C      -45.45410000     -34.93840000     -72.65240000
H      -43.15740000     -33.97100000     -74.92930000
C      -45.51630000     -36.09300000     -73.41310000
C      -46.25340000     -35.04780000     -71.45470000
C      -47.02870000     -36.15870000     -71.36320000
S      -44.44430000     -36.17440000     -74.79810000
S      -46.74350000     -37.18810000     -72.74260000
H      -47.76840000     -36.42530000     -70.56750000
