40
Properties=species:S:1:pos:R:3 #=T CELL(abcABC):=T 1.889726e+02=T 90.00000=T Traj:=T positionsangstrom=T Step:=T 0=T Bead:=T pbc="F F F"
C      -45.75830000     -30.77970000     -72.46640000
C      -44.97340000     -30.55490000     -71.32100000
C      -45.54530000     -30.97440000     -70.09840000
C      -46.85890000     -31.56170000     -70.03460000
C      -47.59590000     -31.67580000     -71.20950000
C      -47.06710000     -31.18600000     -72.40880000
H      -45.40550000     -30.67360000     -73.50020000
H      -45.08100000     -30.85540000     -69.19410000
H      -48.56130000     -32.23090000     -71.11170000
H      -47.54860000     -31.45210000     -73.36550000
C      -47.38040000     -32.06740000     -68.67930000
H      -48.39510000     -31.56350000     -68.45660000
H      -46.73080000     -31.83460000     -67.86520000
C      -43.59080000     -30.03690000     -71.49720000
H      -43.49890000     -29.60160000     -72.45300000
H      -43.29170000     -29.23680000     -70.81170000
S      -47.53380000     -33.88620000     -68.63540000
S      -42.25130000     -31.47550000     -71.52570000
C      -45.70590000     -34.34960000     -68.49670000
H      -45.13020000     -33.48500000     -68.87380000
H      -45.52240000     -34.52670000     -67.47650000
C      -42.79950000     -32.72720000     -70.26230000
H      -43.92940000     -32.53740000     -70.17060000
H      -42.25730000     -32.56800000     -69.34190000
C      -42.64430000     -34.17810000     -70.74500000
H      -41.56460000     -34.36160000     -70.99100000
H      -42.96600000     -34.87890000     -69.95810000
C      -45.45380000     -35.61860000     -69.32400000
H      -45.96870000     -36.44260000     -68.80190000
H      -44.39780000     -35.91330000     -69.11760000
C      -45.84170000     -35.50960000     -70.77720000
C      -47.02870000     -35.98260000     -71.27100000
C      -44.90080000     -35.02520000     -71.81040000
H      -47.86680000     -36.45850000     -70.79940000
C      -45.54660000     -34.92900000     -73.04660000
C      -43.57070000     -34.51570000     -71.90850000
C      -43.16590000     -34.30560000     -73.25780000
S      -47.16620000     -35.60200000     -73.00540000
S      -44.47630000     -34.66380000     -74.36620000
H      -42.28140000     -33.70770000     -73.55110000
