40
Properties=species:S:1:pos:R:3 #=T CELL(abcABC):=T 1.889726e+02=T 90.00000=T Traj:=T positionsangstrom=T Step:=T 0=T Bead:=T pbc="F F F"
C      -47.43120000     -32.62110000     -68.23830000
C      -47.31870000     -32.96650000     -69.58260000
C      -46.30870000     -33.83880000     -70.02860000
C      -45.39640000     -34.35920000     -69.09400000
C      -45.44190000     -34.00920000     -67.72960000
C      -46.54080000     -33.23440000     -67.36040000
H      -48.21230000     -31.90020000     -67.94900000
H      -46.16360000     -34.11080000     -71.05510000
H      -44.87390000     -34.40860000     -66.94650000
H      -46.72900000     -33.11690000     -66.28230000
C      -44.30740000     -35.28870000     -69.63200000
H      -44.38240000     -35.42370000     -70.68140000
H      -44.39350000     -36.23990000     -69.14150000
C      -48.30340000     -32.37870000     -70.51310000
H      -48.42380000     -33.00520000     -71.46180000
H      -49.31390000     -32.20930000     -70.14760000
S      -42.63350000     -34.56820000     -69.33850000
S      -47.55490000     -30.74500000     -70.88370000
C      -42.66840000     -32.88740000     -70.16560000
H      -43.68280000     -32.47710000     -69.87870000
H      -42.01670000     -32.17670000     -69.57230000
C      -45.73680000     -30.90320000     -71.04060000
H      -45.43460000     -31.86470000     -70.54860000
H      -45.29220000     -30.05740000     -70.46550000
C      -45.11840000     -30.81790000     -72.46430000
H      -45.52740000     -29.95370000     -73.00870000
H      -44.07040000     -30.57350000     -72.53210000
C      -42.37000000     -32.86990000     -71.71260000
H      -41.30600000     -33.06020000     -71.84040000
H      -42.38020000     -31.86970000     -72.10870000
C      -43.31670000     -33.74450000     -72.58740000
C      -43.06460000     -35.05560000     -72.81400000
C      -44.65980000     -33.36340000     -73.11320000
H      -42.18530000     -35.52210000     -72.39140000
C      -45.24070000     -34.42620000     -73.72500000
C      -45.45780000     -32.13970000     -73.18820000
C      -46.70370000     -32.36350000     -73.76380000
S      -44.35190000     -35.85290000     -73.56950000
S      -46.85970000     -34.06430000     -74.30770000
H      -47.39820000     -31.62440000     -73.98200000
