40
Properties=species:S:1:pos:R:3 #=T CELL(abcABC):=T 1.889726e+02=T 90.00000=T Traj:=T positionsangstrom=T Step:=T 0=T Bead:=T pbc="F F F"
C      -47.15230000     -33.00980000     -68.22380000
C      -47.00190000     -33.55820000     -69.48900000
C      -45.88570000     -34.36700000     -69.80600000
C      -44.93270000     -34.60060000     -68.81520000
C      -45.14490000     -34.10850000     -67.48410000
C      -46.17420000     -33.28900000     -67.22160000
H      -47.93310000     -32.32940000     -68.05400000
H      -45.74680000     -34.74170000     -70.85830000
H      -44.42480000     -34.24100000     -66.70380000
H      -46.18860000     -32.81540000     -66.25860000
C      -43.63910000     -35.28820000     -69.03820000
H      -43.67680000     -36.03580000     -69.89740000
H      -43.33920000     -35.80220000     -68.05970000
C      -47.82930000     -32.95500000     -70.59310000
H      -47.51100000     -33.33600000     -71.52920000
H      -48.89230000     -33.12650000     -70.48550000
S      -42.12890000     -34.22100000     -69.45750000
S      -47.60930000     -31.00510000     -70.62770000
C      -42.78640000     -32.61840000     -70.25380000
H      -43.77620000     -32.39390000     -69.75600000
H      -42.03060000     -31.81060000     -69.97220000
C      -45.86600000     -30.80370000     -70.98470000
H      -45.27990000     -31.58120000     -70.54510000
H      -45.70290000     -29.81790000     -70.58410000
C      -45.57010000     -30.72300000     -72.49710000
H      -46.26610000     -29.97860000     -72.91850000
H      -44.46980000     -30.47630000     -72.59500000
C      -42.74490000     -32.69760000     -71.80940000
H      -41.75800000     -33.00290000     -72.12940000
H      -42.91060000     -31.72520000     -72.30630000
C      -43.79210000     -33.59280000     -72.40000000
C      -43.47700000     -34.87870000     -72.82810000
C      -45.05690000     -33.22060000     -73.06390000
H      -42.61100000     -35.54650000     -72.60240000
C      -45.55380000     -34.28380000     -73.87500000
C      -45.85090000     -32.01080000     -73.19290000
C      -46.91250000     -32.18890000     -74.04030000
S      -44.61910000     -35.73700000     -73.81670000
S      -47.09730000     -33.89850000     -74.64360000
H      -47.70940000     -31.52030000     -74.09380000
