40
Properties=species:S:1:pos:R:3 #=T CELL(abcABC):=T 1.889726e+02=T 90.00000=T Traj:=T positionsangstrom=T Step:=T 0=T Bead:=T pbc="F F F"
C      -45.54380000     -30.86040000     -72.41430000
C      -44.94710000     -30.62580000     -71.18180000
C      -45.69730000     -30.97640000     -70.04710000
C      -46.94190000     -31.56520000     -70.08540000
C      -47.45290000     -31.82830000     -71.38210000
C      -46.78860000     -31.39040000     -72.54790000
H      -45.01070000     -30.51080000     -73.39260000
H      -45.35840000     -30.74910000     -69.03780000
H      -48.42830000     -32.32240000     -71.56130000
H      -47.25720000     -31.37240000     -73.56660000
C      -47.65340000     -31.85630000     -68.83570000
H      -48.69120000     -31.60780000     -68.89410000
H      -47.21390000     -31.28940000     -68.01820000
C      -43.48770000     -30.16540000     -71.04430000
H      -43.23980000     -29.40190000     -71.71790000
H      -43.30360000     -29.73330000     -69.99590000
S      -47.59770000     -33.69230000     -68.35990000
S      -42.37140000     -31.54610000     -71.40740000
C      -45.88380000     -34.21280000     -68.61480000
H      -45.35110000     -33.36450000     -69.08500000
H      -45.28250000     -34.35990000     -67.69430000
C      -42.88220000     -32.92510000     -70.22460000
H      -43.95620000     -32.73150000     -70.03840000
H      -42.46010000     -32.83300000     -69.23360000
C      -42.57470000     -34.29600000     -70.80390000
H      -41.54150000     -34.26320000     -71.08930000
H      -42.53660000     -35.01420000     -70.06420000
C      -45.63530000     -35.50470000     -69.39200000
H      -46.21460000     -36.36310000     -69.11190000
H      -44.59840000     -35.78150000     -69.25320000
C      -45.86700000     -35.36550000     -70.86890000
C      -47.07250000     -35.65420000     -71.41110000
C      -44.81730000     -35.07770000     -71.90330000
H      -47.91760000     -36.05830000     -70.77510000
C      -45.45630000     -35.03230000     -73.13660000
C      -43.51250000     -34.56990000     -71.92500000
C      -43.09240000     -34.33910000     -73.25380000
S      -47.14450000     -35.65310000     -73.13660000
S      -44.35660000     -34.65100000     -74.44790000
H      -42.12670000     -34.08950000     -73.61010000
