40
Properties=species:S:1:pos:R:3 #=T CELL(abcABC):=T 1.889726e+02=T 90.00000=T Traj:=T positionsangstrom=T Step:=T 0=T Bead:=T pbc="F F F"
C      -44.75720000     -31.32060000     -72.65190000
C      -44.38950000     -31.04030000     -71.29500000
C      -45.38220000     -30.88080000     -70.29930000
C      -46.72610000     -31.17170000     -70.55960000
C      -47.07420000     -31.28450000     -71.96060000
C      -46.12700000     -31.35130000     -72.93870000
H      -44.00170000     -31.63440000     -73.39910000
H      -45.05130000     -30.67500000     -69.31290000
H      -48.15310000     -31.38290000     -72.15320000
H      -46.58840000     -31.43190000     -73.92960000
C      -47.58090000     -31.34220000     -69.33280000
H      -48.59090000     -30.85480000     -69.57540000
H      -47.18130000     -31.01560000     -68.36800000
C      -43.00380000     -30.76000000     -70.84170000
H      -42.37960000     -30.04780000     -71.41870000
H      -43.06730000     -30.39800000     -69.85470000
S      -48.05340000     -33.15430000     -69.44830000
S      -41.94280000     -32.28650000     -70.71420000
C      -46.54370000     -34.05940000     -68.85210000
H      -45.70890000     -33.45330000     -69.18100000
H      -46.42590000     -34.08730000     -67.72000000
C      -42.89800000     -33.26350000     -69.45470000
H      -43.80420000     -32.72550000     -69.18940000
H      -42.34890000     -33.23760000     -68.54260000
C      -43.26650000     -34.71620000     -69.93520000
H      -42.41850000     -35.38480000     -69.90570000
H      -43.90600000     -34.98060000     -69.14620000
C      -46.45840000     -35.51850000     -69.46650000
H      -47.34950000     -36.15460000     -69.31040000
H      -45.58590000     -36.02760000     -69.15660000
C      -46.38270000     -35.37860000     -70.96340000
C      -47.50500000     -35.54550000     -71.72290000
C      -45.31170000     -34.79480000     -71.62270000
H      -48.44600000     -35.96410000     -71.39270000
C      -45.50600000     -34.85760000     -73.03110000
C      -43.92590000     -34.67610000     -71.30220000
C      -43.13540000     -34.50830000     -72.44950000
S      -47.08660000     -35.34120000     -73.47060000
S      -44.05560000     -34.60570000     -73.93010000
H      -42.08570000     -34.64460000     -72.53440000
