40
Properties=species:S:1:pos:R:3 #=T CELL(abcABC):=T 1.889726e+02=T 90.00000=T Traj:=T positionsangstrom=T Step:=T 0=T Bead:=T pbc="F F F"
C      -47.35330000     -32.52870000     -67.84350000
C      -47.24250000     -32.67510000     -69.25020000
C      -46.31430000     -33.59110000     -69.73420000
C      -45.52730000     -34.38180000     -68.88390000
C      -45.74780000     -34.28430000     -67.50650000
C      -46.62610000     -33.33000000     -67.02270000
H      -48.03390000     -31.77730000     -67.40870000
H      -46.25390000     -33.64650000     -70.81260000
H      -45.15670000     -34.71100000     -66.74680000
H      -46.70830000     -33.28200000     -65.95710000
C      -44.56810000     -35.30520000     -69.55040000
H      -44.89900000     -35.53060000     -70.59000000
H      -44.48670000     -36.32230000     -69.08570000
C      -48.12770000     -31.88540000     -70.14040000
H      -48.80540000     -32.52470000     -70.76980000
H      -48.81450000     -31.26770000     -69.63670000
S      -42.84670000     -34.70160000     -69.45210000
S      -47.27450000     -30.53630000     -71.02240000
C      -42.80240000     -33.03350000     -70.28180000
H      -43.67860000     -32.35660000     -70.05800000
H      -41.94270000     -32.48080000     -69.81020000
C      -45.43790000     -30.70520000     -71.05060000
H      -45.12160000     -31.41290000     -70.25230000
H      -45.00970000     -29.77230000     -70.75200000
C      -45.00030000     -31.00000000     -72.48510000
H      -45.43580000     -30.18210000     -73.08620000
H      -43.91860000     -30.93960000     -72.56680000
C      -42.46550000     -32.98420000     -71.72790000
H      -41.38350000     -33.36000000     -71.87760000
H      -42.58420000     -31.91370000     -72.12000000
C      -43.31920000     -33.81790000     -72.68650000
C      -42.96890000     -35.08910000     -73.02430000
C      -44.67880000     -33.47110000     -73.07310000
H      -41.98070000     -35.54080000     -72.76590000
C      -45.36140000     -34.53230000     -73.72780000
C      -45.48710000     -32.31920000     -73.07300000
C      -46.72180000     -32.44840000     -73.73640000
S      -44.26490000     -35.88890000     -74.04810000
S      -46.88110000     -34.09010000     -74.37240000
H      -47.44700000     -31.63670000     -73.67980000
