40
Properties=species:S:1:pos:R:3 #=T CELL(abcABC):=T 1.889726e+02=T 90.00000=T Traj:=T positionsangstrom=T Step:=T 0=T Bead:=T pbc="F F F"
C      -46.92130000     -32.19120000     -68.09570000
C      -47.26810000     -32.77580000     -69.32620000
C      -46.54130000     -33.86070000     -69.88260000
C      -45.45690000     -34.36610000     -69.13280000
C      -45.14240000     -33.76170000     -67.93300000
C      -45.90370000     -32.73290000     -67.35640000
H      -47.53190000     -31.46550000     -67.62510000
H      -46.78070000     -34.29210000     -70.81030000
H      -44.30170000     -34.05120000     -67.29500000
H      -45.53620000     -32.28850000     -66.42920000
C      -44.58020000     -35.51860000     -69.58700000
H      -44.82710000     -36.08050000     -70.51810000
H      -44.59290000     -36.33440000     -68.78820000
C      -48.23460000     -32.06670000     -70.15230000
H      -48.50650000     -32.65880000     -71.01030000
H      -49.19500000     -31.70930000     -69.65500000
S      -42.81490000     -35.03460000     -69.53300000
S      -47.49010000     -30.54470000     -70.81770000
C      -42.65470000     -33.36100000     -70.17020000
H      -43.46070000     -32.77890000     -69.72940000
H      -41.68320000     -32.89530000     -69.79660000
C      -45.61060000     -30.77070000     -71.00080000
H      -45.36810000     -31.57990000     -70.44820000
H      -45.17730000     -29.89140000     -70.53410000
C      -45.11570000     -30.88170000     -72.43090000
H      -45.59100000     -30.12610000     -72.98600000
H      -43.95280000     -30.64630000     -72.48330000
C      -42.52730000     -33.02300000     -71.68800000
H      -41.49200000     -33.29650000     -71.91600000
H      -42.69460000     -32.00720000     -71.76570000
C      -43.40300000     -33.79580000     -72.58160000
C      -43.15230000     -35.11640000     -72.92620000
C      -44.65900000     -33.39610000     -73.15320000
H      -42.38510000     -35.72080000     -72.59280000
C      -45.37870000     -34.42220000     -73.74300000
C      -45.50130000     -32.20550000     -73.11660000
C      -46.70470000     -32.30410000     -73.73380000
S      -44.39920000     -35.93790000     -73.79530000
S      -46.96770000     -33.98670000     -74.29630000
H      -47.56300000     -31.62270000     -73.55370000
