40
Properties=species:S:1:pos:R:3 #=T CELL(abcABC):=T 1.889726e+02=T 90.00000=T Traj:=T positionsangstrom=T Step:=T 0=T Bead:=T pbc="F F F"
C      -44.23780000     -31.42300000     -72.33870000
C      -44.12630000     -31.22690000     -71.00360000
C      -45.22040000     -31.08810000     -70.16210000
C      -46.50350000     -31.08590000     -70.70700000
C      -46.60100000     -31.26880000     -72.11030000
C      -45.49950000     -31.54730000     -72.93090000
H      -43.34280000     -31.42800000     -72.97350000
H      -45.04750000     -30.89730000     -69.09550000
H      -47.50990000     -31.22080000     -72.59700000
H      -45.64750000     -31.72540000     -74.06650000
C      -47.64020000     -30.95400000     -69.76980000
H      -48.50810000     -30.49400000     -70.32970000
H      -47.33670000     -30.34900000     -68.94670000
C      -42.75960000     -31.21330000     -70.37830000
H      -42.07220000     -30.45210000     -70.82540000
H      -42.74310000     -31.00360000     -69.31180000
S      -48.44110000     -32.60670000     -69.19440000
S      -42.00790000     -32.95460000     -70.61920000
C      -46.95920000     -33.63170000     -68.76790000
H      -46.25630000     -32.82470000     -68.71480000
H      -47.09820000     -33.89730000     -67.73110000
C      -43.11710000     -33.93130000     -69.57860000
H      -44.11360000     -33.41070000     -69.62850000
H      -42.80700000     -33.89700000     -68.57280000
C      -43.21170000     -35.39310000     -70.06580000
H      -42.18640000     -35.64610000     -70.18990000
H      -43.77430000     -36.05040000     -69.37990000
C      -46.75490000     -34.85900000     -69.55450000
H      -47.62060000     -35.54690000     -69.31160000
H      -45.85470000     -35.28350000     -69.11440000
C      -46.56830000     -34.65160000     -71.04640000
C      -47.62660000     -34.44500000     -71.88720000
C      -45.30720000     -34.96060000     -71.71150000
H      -48.63240000     -34.18630000     -71.57620000
C      -45.45530000     -34.76360000     -73.07060000
C      -43.93020000     -35.35320000     -71.36710000
C      -43.22970000     -35.45640000     -72.52170000
S      -47.04850000     -34.26340000     -73.55690000
S      -44.11310000     -35.27490000     -74.05610000
H      -42.11960000     -35.61410000     -72.59610000
