40
Properties=species:S:1:pos:R:3 #=T CELL(abcABC):=T 1.889726e+02=T 90.00000=T Traj:=T positionsangstrom=T Step:=T 0=T Bead:=T pbc="F F F"
C      -47.18370000     -32.77910000     -67.95770000
C      -46.88410000     -32.77140000     -69.32680000
C      -45.90750000     -33.68590000     -69.79520000
C      -45.21550000     -34.43420000     -68.92200000
C      -45.40010000     -34.43250000     -67.54100000
C      -46.42280000     -33.55710000     -67.05180000
H      -47.88820000     -32.07440000     -67.73040000
H      -45.64410000     -33.72970000     -70.85450000
H      -44.93050000     -35.12920000     -66.91770000
H      -46.50450000     -33.42840000     -65.95170000
C      -44.15580000     -35.40850000     -69.38350000
H      -44.32890000     -36.04310000     -70.18010000
H      -43.96350000     -36.04820000     -68.49840000
C      -47.60820000     -31.92640000     -70.30890000
H      -47.64480000     -32.33170000     -71.27930000
H      -48.56890000     -31.66780000     -69.89000000
S      -42.39240000     -34.78280000     -69.64690000
S      -46.87920000     -30.29040000     -70.62260000
C      -42.58780000     -33.08920000     -70.53520000
H      -43.42740000     -32.63020000     -69.98140000
H      -41.65550000     -32.60400000     -70.21940000
C      -45.20490000     -30.67400000     -71.21980000
H      -44.98870000     -31.58770000     -70.71820000
H      -44.56490000     -29.92620000     -70.93270000
C      -45.02450000     -30.82640000     -72.69310000
H      -45.43260000     -29.99510000     -73.23750000
H      -43.90940000     -30.87400000     -72.95380000
C      -42.64240000     -33.16330000     -72.04990000
H      -41.73350000     -33.65160000     -72.36250000
H      -42.60540000     -32.18270000     -72.45720000
C      -43.75160000     -34.00030000     -72.67740000
C      -43.71650000     -35.38180000     -72.71240000
C      -44.94490000     -33.39220000     -73.28310000
H      -42.94630000     -36.07540000     -72.38450000
C      -45.77980000     -34.38560000     -73.82460000
C      -45.55520000     -32.09240000     -73.34320000
C      -46.85670000     -32.19270000     -73.79990000
S      -45.14510000     -35.95210000     -73.58660000
S      -47.29610000     -33.80270000     -74.35130000
H      -47.57090000     -31.39110000     -73.91730000
