40
Properties=species:S:1:pos:R:3 #=T CELL(abcABC):=T 1.889726e+02=T 90.00000=T Traj:=T positionsangstrom=T Step:=T 0=T Bead:=T pbc="F F F"
C      -42.99270000     -33.66000000     -74.15540000
C      -44.27600000     -34.35580000     -74.14920000
C      -45.37070000     -33.54880000     -74.40240000
C      -45.25340000     -32.14530000     -74.51840000
C      -44.00230000     -31.53930000     -74.57150000
C      -42.84690000     -32.33490000     -74.48820000
H      -42.05560000     -34.16430000     -73.91230000
H      -46.37020000     -34.01710000     -74.38220000
H      -44.06900000     -30.37330000     -74.49360000
H      -41.85880000     -31.84260000     -74.58460000
C      -46.55550000     -31.37930000     -74.49850000
H      -47.34470000     -32.05070000     -74.86320000
H      -46.51140000     -30.43350000     -75.10390000
C      -44.31410000     -35.85770000     -74.03690000
H      -45.34230000     -36.22490000     -73.95710000
H      -44.00790000     -36.34870000     -75.03290000
S      -47.07730000     -30.71320000     -72.84780000
S      -43.31560000     -36.59690000     -72.73290000
C      -48.06860000     -32.06120000     -72.12280000
H      -48.80170000     -31.49270000     -71.56400000
H      -48.43410000     -32.55950000     -73.01040000
C      -43.67550000     -35.50040000     -71.27190000
H      -43.56110000     -34.47430000     -71.51880000
H      -42.89270000     -35.67430000     -70.50080000
C      -45.06490000     -35.76360000     -70.63460000
H      -45.87840000     -35.51630000     -71.37120000
H      -45.09450000     -36.81230000     -70.38370000
C      -47.39710000     -33.16060000     -71.32090000
H      -46.76510000     -33.70060000     -72.05500000
H      -48.18340000     -33.82910000     -70.86460000
C      -46.71170000     -32.70030000     -70.03110000
C      -47.15990000     -31.58830000     -69.36710000
C      -45.85720000     -33.55980000     -69.20910000
H      -47.84230000     -30.80310000     -69.54610000
C      -45.55520000     -32.97910000     -67.98350000
C      -45.13840000     -34.79920000     -69.41680000
C      -44.59310000     -35.29600000     -68.25070000
S      -46.36590000     -31.45250000     -67.79790000
S      -44.62060000     -34.07810000     -66.98930000
H      -44.00580000     -36.17640000     -68.18910000
