40
Properties=species:S:1:pos:R:3 #=T CELL(abcABC):=T 1.889726e+02=T 90.00000=T Traj:=T positionsangstrom=T Step:=T 0=T Bead:=T pbc="F F F"
C      -45.39560000     -37.71360000     -72.11030000
C      -45.62620000     -36.87360000     -70.99260000
C      -44.54690000     -36.02800000     -70.65980000
C      -43.26890000     -35.98780000     -71.35070000
C      -43.10180000     -36.86450000     -72.41030000
C      -44.18780000     -37.71780000     -72.77020000
H      -46.17800000     -38.31700000     -72.52510000
H      -44.53110000     -35.50640000     -69.72710000
H      -42.12110000     -37.06160000     -72.88600000
H      -44.05370000     -38.44580000     -73.53010000
C      -42.01640000     -35.25190000     -70.86400000
H      -41.54250000     -34.76870000     -71.73110000
H      -41.26710000     -35.95910000     -70.50990000
C      -46.96330000     -36.90270000     -70.26230000
H      -47.69440000     -37.07340000     -71.06830000
H      -47.03620000     -37.75180000     -69.55630000
S      -42.19480000     -33.90140000     -69.64320000
S      -47.20610000     -35.45820000     -69.19350000
C      -42.74440000     -32.46240000     -70.61150000
H      -43.06510000     -31.73770000     -69.84230000
H      -41.88810000     -32.03940000     -71.22490000
C      -47.24380000     -34.13650000     -70.48060000
H      -48.18970000     -33.86280000     -70.93350000
H      -46.47790000     -34.38000000     -71.25240000
C      -46.88350000     -32.79780000     -69.79070000
H      -47.64970000     -32.65560000     -69.00760000
H      -45.92430000     -32.79470000     -69.26460000
C      -43.89140000     -32.87410000     -71.57510000
H      -44.56170000     -33.61670000     -71.02540000
H      -43.58520000     -33.50320000     -72.41590000
C      -44.63970000     -31.61050000     -72.06830000
C      -44.18550000     -30.93650000     -73.19190000
C      -45.95160000     -31.19950000     -71.70900000
H      -43.14100000     -30.91450000     -73.52680000
C      -46.40370000     -30.07050000     -72.49850000
C      -46.96500000     -31.65470000     -70.75900000
C      -48.05750000     -30.83850000     -70.83010000
S      -45.31870000     -29.74640000     -73.76760000
S      -48.04740000     -29.63630000     -72.11130000
H      -48.86110000     -31.00100000     -70.12130000
