40
Properties=species:S:1:pos:R:3 #=T CELL(abcABC):=T 1.889726e+02=T 90.00000=T Traj:=T positionsangstrom=T Step:=T 0=T Bead:=T pbc="F F F"
C      -44.27930000     -31.14600000     -72.42220000
C      -43.82950000     -31.12680000     -71.07270000
C      -44.84260000     -30.97450000     -70.11600000
C      -46.23240000     -30.76500000     -70.39320000
C      -46.60900000     -30.74390000     -71.80310000
C      -45.61620000     -30.88540000     -72.76060000
H      -43.43320000     -31.17160000     -73.18450000
H      -44.46450000     -30.97940000     -69.09380000
H      -47.60460000     -30.53670000     -72.04300000
H      -45.90020000     -31.00730000     -73.78860000
C      -47.20780000     -30.74440000     -69.32530000
H      -48.04500000     -29.92830000     -69.39330000
H      -46.82480000     -30.69150000     -68.27000000
C      -42.40760000     -31.37390000     -70.66930000
H      -41.66880000     -31.08380000     -71.42570000
H      -42.21990000     -30.81630000     -69.76580000
S      -48.18440000     -32.31470000     -69.45290000
S      -42.07200000     -33.14230000     -70.33210000
C      -47.05550000     -33.68010000     -69.04560000
H      -46.00440000     -33.27770000     -69.10610000
H      -47.23470000     -33.85960000     -67.98480000
C      -43.34570000     -33.87400000     -69.32810000
H      -44.25230000     -33.26720000     -69.32860000
H      -42.94420000     -33.94670000     -68.37250000
C      -43.67230000     -35.27390000     -69.84410000
H      -42.77070000     -35.95350000     -69.73730000
H      -44.52600000     -35.64190000     -69.19850000
C      -47.23120000     -34.95520000     -69.81740000
H      -48.30040000     -35.36590000     -69.58360000
H      -46.60540000     -35.72930000     -69.33390000
C      -46.90260000     -34.86640000     -71.30810000
C      -47.79870000     -34.66560000     -72.36730000
C      -45.55240000     -35.00560000     -71.81150000
H      -48.79410000     -34.46550000     -72.33050000
C      -45.53840000     -35.14230000     -73.19430000
C      -44.19450000     -35.29110000     -71.23430000
C      -43.24380000     -35.32660000     -72.20540000
S      -47.05510000     -34.92070000     -73.97240000
S      -43.96150000     -35.27180000     -73.79070000
H      -42.15810000     -35.54050000     -72.17300000
