40
Properties=species:S:1:pos:R:3 #=T CELL(abcABC):=T 1.889726e+02=T 90.00000=T Traj:=T positionsangstrom=T Step:=T 0=T Bead:=T pbc="F F F"
C      -47.03300000     -32.79400000     -67.99350000
C      -46.69500000     -32.71840000     -69.33050000
C      -45.80670000     -33.68960000     -69.83940000
C      -45.23900000     -34.56050000     -68.93010000
C      -45.43760000     -34.49070000     -67.50740000
C      -46.33480000     -33.50600000     -67.00530000
H      -47.70120000     -32.06150000     -67.69060000
H      -45.58810000     -33.81170000     -70.89980000
H      -44.88900000     -35.16760000     -66.96270000
H      -46.40740000     -33.50080000     -65.90480000
C      -44.22450000     -35.56870000     -69.53610000
H      -44.55390000     -36.09660000     -70.51100000
H      -44.26450000     -36.36650000     -68.76970000
C      -47.45650000     -31.98130000     -70.31420000
H      -47.38710000     -32.56800000     -71.29540000
H      -48.46960000     -31.85330000     -69.90750000
S      -42.45000000     -34.79810000     -69.53990000
S      -46.83670000     -30.25610000     -70.54330000
C      -42.61110000     -33.26830000     -70.47260000
H      -43.54500000     -32.71190000     -70.16160000
H      -41.81090000     -32.61200000     -70.18980000
C      -45.13670000     -30.43340000     -71.22540000
H      -44.60300000     -31.23240000     -70.54960000
H      -44.69350000     -29.41030000     -71.15300000
C      -45.09250000     -30.76450000     -72.79860000
H      -45.42380000     -29.92020000     -73.41480000
H      -44.02770000     -30.82480000     -73.00450000
C      -42.61120000     -33.32140000     -72.01240000
H      -41.68280000     -33.83960000     -72.28800000
H      -42.47730000     -32.25070000     -72.46620000
C      -43.78700000     -33.99890000     -72.66470000
C      -43.73200000     -35.34300000     -72.86050000
C      -45.04820000     -33.42610000     -73.16620000
H      -42.84720000     -35.94830000     -72.66050000
C      -45.82750000     -34.37410000     -73.77720000
C      -45.66320000     -32.11570000     -73.23600000
C      -46.85210000     -32.08100000     -73.91770000
S      -45.16960000     -35.95470000     -73.67850000
S      -47.36350000     -33.72650000     -74.34260000
H      -47.55040000     -31.24830000     -73.98220000
