40
Properties=species:S:1:pos:R:3 #=T CELL(abcABC):=T 1.889726e+02=T 90.00000=T Traj:=T positionsangstrom=T Step:=T 0=T Bead:=T pbc="F F F"
C      -45.45620000     -36.78690000     -72.37520000
C      -45.54440000     -36.58740000     -70.95600000
C      -44.32200000     -36.22190000     -70.33880000
C      -43.14830000     -35.95630000     -71.04410000
C      -43.09400000     -36.25760000     -72.43720000
C      -44.27270000     -36.80460000     -73.03130000
H      -46.39540000     -36.99360000     -72.92790000
H      -44.38090000     -36.06330000     -69.23750000
H      -42.18450000     -36.05350000     -73.04530000
H      -44.14610000     -37.07180000     -74.08320000
C      -41.96020000     -35.38630000     -70.29750000
H      -41.14470000     -35.23020000     -70.98740000
H      -41.60960000     -36.11040000     -69.52610000
C      -46.80910000     -36.77990000     -70.23810000
H      -47.70170000     -36.82140000     -70.94340000
H      -46.85330000     -37.67900000     -69.64070000
S      -42.30960000     -33.81660000     -69.48360000
S      -47.16330000     -35.38130000     -68.92320000
C      -43.00020000     -32.63800000     -70.77610000
H      -43.30600000     -31.80480000     -70.17710000
H      -42.18560000     -32.36050000     -71.42170000
C      -47.34270000     -33.98440000     -70.16620000
H      -48.43560000     -33.89240000     -70.28090000
H      -46.90590000     -34.40630000     -71.07540000
C      -46.85680000     -32.62810000     -69.73320000
H      -47.32240000     -32.29320000     -68.80260000
H      -45.79220000     -32.73190000     -69.45200000
C      -44.11340000     -33.18510000     -71.65660000
H      -44.70400000     -33.79720000     -70.92800000
H      -43.74250000     -33.98660000     -72.41070000
C      -44.90250000     -32.19840000     -72.39250000
C      -44.39280000     -31.72580000     -73.57070000
C      -46.03390000     -31.44980000     -71.84490000
H      -43.45210000     -31.95290000     -74.05050000
C      -46.49090000     -30.53980000     -72.78450000
C      -46.98150000     -31.59300000     -70.76190000
C      -47.90670000     -30.53860000     -70.77240000
S      -45.26080000     -30.32820000     -74.09830000
S      -47.78460000     -29.51300000     -72.14980000
H      -48.80260000     -30.55130000     -70.20230000
