40
Properties=species:S:1:pos:R:3 #=T CELL(abcABC):=T 1.889726e+02=T 90.00000=T Traj:=T positionsangstrom=T Step:=T 0=T Bead:=T pbc="F F F"
C      -46.24920000     -32.51200000     -67.79150000
C      -46.23820000     -32.50180000     -69.17830000
C      -45.68870000     -33.56060000     -69.87640000
C      -45.00490000     -34.56600000     -69.16140000
C      -44.91700000     -34.50140000     -67.76960000
C      -45.66530000     -33.56030000     -67.05630000
H      -46.71300000     -31.75890000     -67.12410000
H      -45.58080000     -33.47820000     -70.96760000
H      -44.52360000     -35.39360000     -67.28130000
H      -45.70750000     -33.46120000     -65.96020000
C      -44.35950000     -35.76150000     -69.76890000
H      -44.93290000     -36.10010000     -70.64710000
H      -44.28020000     -36.53850000     -68.98840000
C      -46.88870000     -31.39120000     -69.90370000
H      -47.28870000     -31.75880000     -70.82660000
H      -47.65720000     -30.85070000     -69.36100000
S      -42.55580000     -35.28970000     -70.31840000
S      -45.72750000     -29.90560000     -70.32160000
C      -42.63190000     -33.71500000     -71.16520000
H      -43.38170000     -33.02920000     -70.77060000
H      -41.60150000     -33.23110000     -70.95370000
C      -44.37820000     -30.63270000     -71.37160000
H      -44.20000000     -31.57990000     -70.94520000
H      -43.49760000     -29.97080000     -71.24730000
C      -44.66260000     -30.95690000     -72.85960000
H      -45.06810000     -30.11000000     -73.41580000
H      -43.64070000     -31.26320000     -73.21240000
C      -42.87810000     -33.81490000     -72.75250000
H      -42.16020000     -34.51040000     -73.07930000
H      -42.61550000     -32.82190000     -73.19180000
C      -44.23590000     -34.37660000     -73.11200000
C      -44.55400000     -35.70650000     -73.16490000
C      -45.37780000     -33.53270000     -73.17740000
H      -43.87360000     -36.56780000     -73.20300000
C      -46.53730000     -34.21100000     -73.46780000
C      -45.72530000     -32.10770000     -73.04660000
C      -47.04840000     -31.82330000     -73.15010000
S      -46.29390000     -35.94260000     -73.40300000
S      -47.94180000     -33.24160000     -73.53280000
H      -47.40170000     -30.83060000     -73.31790000
