40
Properties=species:S:1:pos:R:3 #=T CELL(abcABC):=T 1.889726e+02=T 90.00000=T Traj:=T positionsangstrom=T Step:=T 0=T Bead:=T pbc="F F F"
C      -46.00840000     -32.02200000     -67.62740000
C      -46.50430000     -32.41630000     -68.90130000
C      -45.92160000     -33.61450000     -69.44630000
C      -45.10220000     -34.43300000     -68.73370000
C      -44.65850000     -33.99480000     -67.43670000
C      -45.05850000     -32.78170000     -66.99060000
H      -46.26230000     -31.19270000     -67.01730000
H      -46.37230000     -33.91170000     -70.42700000
H      -43.84970000     -34.56190000     -66.94200000
H      -44.64840000     -32.40010000     -66.03020000
C      -44.61000000     -35.75430000     -69.35480000
H      -45.30410000     -35.99250000     -70.15530000
H      -44.46890000     -36.62690000     -68.73970000
C      -47.47080000     -31.61400000     -69.81330000
H      -47.77040000     -32.31480000     -70.69500000
H      -48.41990000     -31.14480000     -69.39990000
S      -42.84840000     -35.60250000     -70.15740000
S      -46.45190000     -30.20190000     -70.32840000
C      -42.70550000     -33.79880000     -70.70850000
H      -43.46090000     -33.23970000     -70.13860000
H      -41.75570000     -33.47020000     -70.33620000
C      -44.88150000     -30.89460000     -70.96870000
H      -44.75680000     -31.86020000     -70.52820000
H      -44.08440000     -30.17560000     -70.65780000
C      -44.87610000     -31.06020000     -72.46160000
H      -45.27170000     -30.14760000     -72.90940000
H      -43.89110000     -31.00920000     -72.79660000
C      -42.78360000     -33.72190000     -72.21380000
H      -41.84650000     -34.16000000     -72.65330000
H      -42.64760000     -32.72080000     -72.54690000
C      -44.07250000     -34.23190000     -72.83600000
C      -44.15760000     -35.54990000     -73.27270000
C      -45.25930000     -33.49600000     -73.15000000
H      -43.35340000     -36.29510000     -73.24480000
C      -46.17380000     -34.27280000     -73.91070000
C      -45.80280000     -32.15580000     -72.90050000
C      -46.97240000     -31.88630000     -73.57130000
S      -45.59290000     -35.88320000     -74.12080000
S      -47.59140000     -33.30150000     -74.44720000
H      -47.30780000     -30.90630000     -73.66890000
