40
Properties=species:S:1:pos:R:3 #=T CELL(abcABC):=T 1.889726e+02=T 90.00000=T Traj:=T positionsangstrom=T Step:=T 0=T Bead:=T pbc="F F F"
C      -42.94630000     -33.54490000     -74.32070000
C      -44.12940000     -34.24170000     -74.11310000
C      -45.35640000     -33.53850000     -74.12520000
C      -45.33860000     -32.14190000     -74.36170000
C      -44.11950000     -31.46600000     -74.52040000
C      -42.91820000     -32.18050000     -74.56540000
H      -42.01250000     -34.01580000     -74.28680000
H      -46.34970000     -34.00560000     -74.17910000
H      -44.09430000     -30.38880000     -74.81730000
H      -41.97300000     -31.72640000     -74.79000000
C      -46.58180000     -31.27780000     -74.45940000
H      -47.42980000     -31.79170000     -74.93180000
H      -46.36110000     -30.40660000     -74.96650000
C      -44.31150000     -35.70910000     -74.03230000
H      -45.35490000     -35.97710000     -73.93150000
H      -43.98430000     -36.09520000     -74.97840000
S      -47.09200000     -30.67520000     -72.75010000
S      -43.40040000     -36.71110000     -72.71270000
C      -48.01030000     -32.13760000     -72.19360000
H      -48.84790000     -31.84810000     -71.51550000
H      -48.38530000     -32.71450000     -73.11180000
C      -43.66890000     -35.79300000     -71.15430000
H      -43.21980000     -34.82730000     -71.38760000
H      -42.97650000     -36.23550000     -70.40230000
C      -45.11880000     -35.71300000     -70.62180000
H      -45.79310000     -35.28360000     -71.38840000
H      -45.48540000     -36.72330000     -70.39570000
C      -47.06630000     -33.14370000     -71.50640000
H      -46.14010000     -33.31690000     -72.03370000
H      -47.49670000     -34.11670000     -71.65100000
C      -46.77410000     -32.86890000     -70.09070000
C      -47.02680000     -31.65920000     -69.49670000
C      -45.96200000     -33.75370000     -69.27250000
H      -47.41580000     -30.82530000     -69.96550000
C      -45.73240000     -33.08920000     -68.03060000
C      -45.16700000     -34.91650000     -69.31970000
C      -44.38090000     -35.13040000     -68.19950000
S      -46.40910000     -31.53780000     -67.90030000
S      -44.62420000     -33.89540000     -66.97410000
H      -43.71790000     -35.96510000     -68.11240000
