40
Properties=species:S:1:pos:R:3 #=T CELL(abcABC):=T 1.889726e+02=T 90.00000=T Traj:=T positionsangstrom=T Step:=T 0=T Bead:=T pbc="F F F"
C      -44.86280000     -32.29030000     -67.48080000
C      -45.66140000     -32.47400000     -68.59860000
C      -45.60930000     -33.71410000     -69.31680000
C      -44.84820000     -34.77630000     -68.86890000
C      -44.15040000     -34.61140000     -67.65300000
C      -44.13550000     -33.36940000     -67.03390000
H      -44.82000000     -31.29950000     -66.98980000
H      -46.31880000     -33.88300000     -70.12120000
H      -43.57850000     -35.38090000     -67.20420000
H      -43.53560000     -33.31660000     -66.10410000
C      -44.82560000     -36.02580000     -69.75540000
H      -45.78930000     -35.88000000     -70.34340000
H      -44.99370000     -36.89820000     -69.13110000
C      -46.63590000     -31.38410000     -69.01870000
H      -47.56580000     -31.72260000     -69.45110000
H      -46.82480000     -30.74370000     -68.10800000
S      -43.19360000     -36.12460000     -70.71150000
S      -46.01570000     -30.20690000     -70.34590000
C      -42.91510000     -34.32980000     -71.21260000
H      -43.65780000     -33.78540000     -70.64520000
H      -41.99020000     -34.05370000     -70.79540000
C      -44.50550000     -30.99440000     -71.12700000
H      -44.48940000     -31.98570000     -70.79780000
H      -43.53800000     -30.64620000     -70.71740000
C      -44.49280000     -30.83580000     -72.64820000
H      -44.53730000     -29.79850000     -72.94990000
H      -43.53330000     -31.17100000     -73.09720000
C      -43.01710000     -34.11670000     -72.78440000
H      -42.36350000     -34.85780000     -73.28780000
H      -42.60960000     -33.04810000     -73.03830000
C      -44.43320000     -34.31720000     -73.28370000
C      -44.96450000     -35.55330000     -73.45860000
C      -45.44080000     -33.22340000     -73.37850000
H      -44.40440000     -36.47030000     -73.58960000
C      -46.68100000     -33.75900000     -73.60040000
C      -45.55170000     -31.75410000     -73.26470000
C      -46.80480000     -31.22400000     -73.38550000
S      -46.70770000     -35.55660000     -73.61030000
S      -47.99320000     -32.61080000     -73.77710000
H      -47.08380000     -30.22710000     -73.16250000
