40
Properties=species:S:1:pos:R:3 #=T CELL(abcABC):=T 1.889726e+02=T 90.00000=T Traj:=T positionsangstrom=T Step:=T 0=T Bead:=T pbc="F F F"
C      -46.36030000     -36.94860000     -73.18360000
C      -45.04780000     -36.48670000     -73.11550000
C      -44.75030000     -35.26270000     -73.74090000
C      -45.65750000     -34.58370000     -74.50010000
C      -46.93550000     -35.14220000     -74.65550000
C      -47.35050000     -36.24420000     -73.95010000
H      -46.63370000     -37.84370000     -72.74080000
H      -43.75770000     -34.90430000     -73.60380000
H      -47.60890000     -34.52870000     -75.25030000
H      -48.31710000     -36.73790000     -74.27480000
C      -45.35610000     -33.22400000     -75.08380000
H      -45.44370000     -33.27860000     -76.11710000
H      -44.35960000     -32.81150000     -74.75730000
C      -44.00210000     -37.23870000     -72.30430000
H      -44.39710000     -37.96140000     -71.54730000
H      -43.46660000     -37.80290000     -73.05250000
S      -46.43630000     -31.83590000     -74.48040000
S      -42.61980000     -36.24260000     -71.54430000
C      -46.49200000     -32.08620000     -72.66160000
H      -47.52770000     -32.04110000     -72.30540000
H      -46.13380000     -33.14190000     -72.54750000
C      -43.58840000     -35.19430000     -70.27190000
H      -42.82520000     -35.07520000     -69.50200000
H      -44.34900000     -35.79010000     -69.83100000
C      -44.12470000     -33.83930000     -70.69590000
H      -43.34860000     -33.23110000     -71.12880000
H      -44.83100000     -34.03250000     -71.53000000
C      -45.43260000     -31.23570000     -72.01870000
H      -45.33790000     -30.26000000     -72.51280000
H      -44.50090000     -31.92760000     -72.06690000
C      -45.71050000     -30.95490000     -70.58530000
C      -46.46480000     -29.83630000     -70.09070000
C      -45.30560000     -31.79680000     -69.52990000
H      -47.18000000     -29.16290000     -70.58470000
C      -45.49250000     -31.32300000     -68.21920000
C      -44.72250000     -33.10010000     -69.52410000
C      -44.50380000     -33.47500000     -68.17820000
S      -46.33280000     -29.87790000     -68.30300000
S      -45.22080000     -32.46530000     -66.96400000
H      -44.12730000     -34.48040000     -67.84970000
