40
Properties=species:S:1:pos:R:3 #=T CELL(abcABC):=T 1.889726e+02=T 90.00000=T Traj:=T positionsangstrom=T Step:=T 0=T Bead:=T pbc="F F F"
C      -45.52810000     -36.85700000     -67.97930000
C      -45.86310000     -35.49100000     -68.22820000
C      -44.86810000     -34.53150000     -68.47120000
C      -43.56400000     -34.89730000     -68.67030000
C      -43.34450000     -36.27420000     -68.80940000
C      -44.29200000     -37.31640000     -68.49160000
H      -46.29860000     -37.51940000     -67.61660000
H      -45.14590000     -33.50580000     -68.58950000
H      -42.35440000     -36.49370000     -69.11900000
H      -44.09350000     -38.37050000     -68.59760000
C      -42.33450000     -33.95410000     -68.60660000
H      -41.37020000     -34.47820000     -68.53550000
H      -42.48200000     -33.27650000     -67.79670000
C      -47.20960000     -35.05190000     -67.91910000
H      -47.76970000     -35.67970000     -67.18150000
H      -47.24020000     -33.93430000     -67.50960000
S      -42.46120000     -32.72800000     -70.15880000
S      -48.28330000     -34.89440000     -69.54130000
C      -42.65250000     -33.88750000     -71.66870000
H      -41.94990000     -33.47560000     -72.41550000
H      -42.31600000     -34.84050000     -71.35670000
C      -47.40710000     -33.64310000     -70.57510000
H      -46.45040000     -33.22100000     -70.33250000
H      -47.92200000     -32.68010000     -70.39150000
C      -47.45360000     -33.96180000     -72.11910000
H      -46.75910000     -34.74770000     -72.32500000
H      -48.37950000     -34.41780000     -72.44620000
C      -43.99630000     -33.89850000     -72.35090000
H      -44.73040000     -34.18570000     -71.60040000
H      -43.96170000     -34.74470000     -72.99880000
C      -44.37010000     -32.59920000     -73.11120000
C      -43.45240000     -31.70830000     -73.57530000
C      -45.73980000     -32.28380000     -73.40480000
H      -42.40660000     -31.70410000     -73.31850000
C      -45.78950000     -31.15190000     -74.24660000
C      -47.14650000     -32.76390000     -73.08820000
C      -48.03400000     -31.88050000     -73.64920000
S      -44.17030000     -30.40480000     -74.45570000
S      -47.39350000     -30.69600000     -74.74870000
H      -49.14000000     -31.97520000     -73.56330000
