40
Properties=species:S:1:pos:R:3 #=T CELL(abcABC):=T 1.889726e+02=T 90.00000=T Traj:=T positionsangstrom=T Step:=T 0=T Bead:=T pbc="F F F"
C      -45.45880000     -32.75790000     -67.58640000
C      -45.89710000     -32.89560000     -68.91820000
C      -45.68510000     -34.14210000     -69.59750000
C      -45.07940000     -35.20240000     -68.96260000
C      -44.56930000     -35.01060000     -67.67190000
C      -44.78390000     -33.82630000     -66.95490000
H      -45.62390000     -31.80600000     -67.13060000
H      -46.11730000     -34.29200000     -70.55000000
H      -43.90060000     -35.81020000     -67.23880000
H      -44.46070000     -33.68960000     -65.91070000
C      -44.93460000     -36.43980000     -69.82420000
H      -45.74130000     -36.46060000     -70.52770000
H      -44.94480000     -37.45150000     -69.32630000
C      -46.39560000     -31.77800000     -69.76770000
H      -46.64830000     -32.24950000     -70.70150000
H      -47.28260000     -31.44690000     -69.22490000
S      -43.32430000     -36.54270000     -70.77530000
S      -45.14430000     -30.39430000     -70.11400000
C      -42.89330000     -34.87740000     -71.49140000
H      -43.35010000     -34.08600000     -70.88340000
H      -41.81820000     -34.89990000     -71.44780000
C      -43.76320000     -31.15770000     -71.15820000
H      -43.76510000     -32.19050000     -70.93390000
H      -42.85120000     -30.80580000     -70.64320000
C      -43.76170000     -30.95380000     -72.64880000
H      -43.77390000     -29.82030000     -72.90590000
H      -42.90870000     -31.41430000     -73.10060000
C      -43.44390000     -34.68630000     -72.89290000
H      -43.24530000     -35.52740000     -73.58450000
H      -42.89030000     -33.81290000     -73.39480000
C      -44.85070000     -34.28840000     -73.06640000
C      -45.73760000     -35.28710000     -73.28890000
C      -45.42330000     -32.98050000     -73.19320000
H      -45.58930000     -36.34580000     -72.98560000
C      -46.81790000     -33.05620000     -73.40920000
C      -45.06260000     -31.54270000     -73.05490000
C      -46.13310000     -30.69670000     -73.28260000
S      -47.38980000     -34.73930000     -73.43740000
S      -47.63400000     -31.55740000     -73.64850000
H      -46.24380000     -29.62560000     -73.25830000
