40
Properties=species:S:1:pos:R:3 #=T CELL(abcABC):=T 1.889726e+02=T 90.00000=T Traj:=T positionsangstrom=T Step:=T 0=T Bead:=T pbc="F F F"
C      -45.25930000     -32.59010000     -67.81200000
C      -45.78790000     -32.89120000     -69.13040000
C      -45.69880000     -34.14500000     -69.64120000
C      -44.97540000     -35.16920000     -68.95460000
C      -44.47050000     -34.85440000     -67.67880000
C      -44.53340000     -33.56980000     -67.13020000
H      -45.36440000     -31.60210000     -67.40770000
H      -46.02660000     -34.25510000     -70.67840000
H      -43.95750000     -35.62210000     -67.24940000
H      -44.10400000     -33.31560000     -66.15430000
C      -44.75670000     -36.56980000     -69.57830000
H      -45.67090000     -36.73800000     -70.15600000
H      -44.71390000     -37.31760000     -68.81280000
C      -46.45830000     -31.76580000     -69.78650000
H      -46.96880000     -32.05080000     -70.74980000
H      -47.19010000     -31.31870000     -69.09300000
S      -43.31300000     -36.59190000     -70.71700000
S      -45.41010000     -30.29210000     -70.22660000
C      -43.10910000     -34.79990000     -71.17020000
H      -43.59150000     -34.10400000     -70.46550000
H      -42.06800000     -34.43720000     -71.03260000
C      -43.77960000     -31.01910000     -70.90180000
H      -43.76990000     -32.07870000     -70.50310000
H      -42.95650000     -30.33820000     -70.54780000
C      -43.78050000     -31.19660000     -72.43780000
H      -43.60820000     -30.34200000     -73.01440000
H      -42.94060000     -31.89030000     -72.72370000
C      -43.43070000     -34.44610000     -72.70870000
H      -43.03430000     -35.28040000     -73.23680000
H      -42.89160000     -33.60780000     -73.02320000
C      -44.88200000     -34.32140000     -73.02150000
C      -45.69370000     -35.41080000     -73.22930000
C      -45.54800000     -33.07340000     -73.05380000
H      -45.41970000     -36.43250000     -73.22910000
C      -46.87030000     -33.15660000     -73.47310000
C      -45.08620000     -31.67320000     -72.97660000
C      -46.06790000     -30.81970000     -73.43210000
S      -47.33650000     -34.81560000     -73.69660000
S      -47.64550000     -31.61490000     -73.65100000
H      -46.10710000     -29.71460000     -73.39940000
