40
Properties=species:S:1:pos:R:3 #=T CELL(abcABC):=T 1.889726e+02=T 90.00000=T Traj:=T positionsangstrom=T Step:=T 0=T Bead:=T pbc="F F F"
C      -43.08210000     -33.80270000     -74.39180000
C      -44.38740000     -34.32080000     -74.31670000
C      -45.46370000     -33.43480000     -74.38330000
C      -45.30900000     -32.07830000     -74.29330000
C      -44.00000000     -31.58330000     -74.26370000
C      -42.90310000     -32.42310000     -74.36040000
H      -42.17990000     -34.55760000     -74.39340000
H      -46.46500000     -33.85100000     -74.41920000
H      -43.82520000     -30.53820000     -74.06120000
H      -41.88890000     -31.94260000     -74.31280000
C      -46.44460000     -31.07980000     -74.33430000
H      -47.15500000     -31.41650000     -74.99580000
H      -46.20200000     -30.08230000     -74.66720000
C      -44.62120000     -35.84110000     -74.14340000
H      -45.71870000     -35.93310000     -73.77300000
H      -44.47000000     -36.43550000     -75.04710000
S      -47.21820000     -30.72850000     -72.67330000
S      -43.44130000     -36.52060000     -72.84370000
C      -47.93290000     -32.33830000     -72.26490000
H      -48.79430000     -32.19140000     -71.61200000
H      -48.27950000     -32.76570000     -73.15330000
C      -43.65100000     -35.32050000     -71.46510000
H      -43.71910000     -34.29800000     -71.73400000
H      -42.79260000     -35.40010000     -70.75690000
C      -44.80580000     -35.78270000     -70.56110000
H      -45.76170000     -35.68140000     -71.15040000
H      -44.64960000     -36.82110000     -70.32290000
C      -46.92520000     -33.26460000     -71.57880000
H      -45.95950000     -33.43730000     -72.10010000
H      -47.29580000     -34.29760000     -71.51060000
C      -46.55790000     -32.90240000     -70.12880000
C      -47.11620000     -31.83900000     -69.50160000
C      -45.63950000     -33.60960000     -69.24060000
H      -47.93670000     -31.27830000     -70.00430000
C      -45.65810000     -33.03630000     -68.00620000
C      -44.81570000     -34.85540000     -69.33060000
C      -44.21850000     -35.07170000     -68.11270000
S      -46.70440000     -31.66220000     -67.78310000
S      -44.58000000     -33.78920000     -66.95940000
H      -43.47220000     -35.79420000     -67.80810000
