40
Properties=species:S:1:pos:R:3 #=T CELL(abcABC):=T 1.889726e+02=T 90.00000=T Traj:=T positionsangstrom=T Step:=T 0=T Bead:=T pbc="F F F"
C      -44.39480000     -33.02310000     -67.68690000
C      -45.25390000     -32.76690000     -68.74720000
C      -45.67010000     -33.86410000     -69.56080000
C      -45.31170000     -35.17390000     -69.25980000
C      -44.48660000     -35.43830000     -68.07650000
C      -43.98940000     -34.31910000     -67.39950000
H      -43.83220000     -32.24380000     -67.24150000
H      -46.29610000     -33.71750000     -70.41150000
H      -44.31450000     -36.45710000     -67.73610000
H      -43.32130000     -34.49930000     -66.55090000
C      -45.52820000     -36.20220000     -70.32660000
H      -46.14370000     -35.66760000     -71.09950000
H      -45.93920000     -37.17280000     -70.05710000
C      -45.53500000     -31.35930000     -69.13070000
H      -46.41630000     -31.30310000     -69.85610000
H      -45.81620000     -30.74130000     -68.25600000
S      -43.99730000     -36.62270000     -71.37130000
S      -44.14670000     -30.39680000     -69.72570000
C      -43.29920000     -34.93130000     -71.89230000
H      -43.77720000     -34.21960000     -71.18140000
H      -42.20720000     -34.95390000     -71.71950000
C      -43.31580000     -31.52140000     -70.93230000
H      -43.40030000     -32.54750000     -70.56430000
H      -42.23570000     -31.22470000     -70.87230000
C      -43.84560000     -31.35640000     -72.37230000
H      -43.74150000     -30.38650000     -72.69070000
H      -43.28540000     -32.03250000     -72.98420000
C      -43.70250000     -34.60780000     -73.38750000
H      -43.29740000     -35.47500000     -73.97720000
H      -43.14520000     -33.76510000     -73.67190000
C      -45.16660000     -34.30730000     -73.43410000
C      -46.12220000     -35.19930000     -73.87140000
C      -45.76090000     -33.01840000     -73.05320000
H      -45.92210000     -36.17600000     -74.31040000
C      -47.20360000     -32.98250000     -73.08130000
C      -45.24300000     -31.72730000     -72.58930000
C      -46.26830000     -30.78200000     -72.58400000
S      -47.74380000     -34.48530000     -73.74340000
S      -47.88640000     -31.33580000     -72.85240000
H      -46.17290000     -29.72790000     -72.21170000
