40
Properties=species:S:1:pos:R:3 #=T CELL(abcABC):=T 1.889726e+02=T 90.00000=T Traj:=T positionsangstrom=T Step:=T 0=T Bead:=T pbc="F F F"
C      -44.33070000     -33.16840000     -67.64000000
C      -45.16810000     -32.81580000     -68.69710000
C      -45.61290000     -33.73640000     -69.65000000
C      -45.36060000     -35.11270000     -69.44130000
C      -44.63770000     -35.45350000     -68.28720000
C      -44.16620000     -34.52580000     -67.38710000
H      -44.12440000     -32.49290000     -66.85120000
H      -46.32360000     -33.37620000     -70.40880000
H      -44.46030000     -36.48440000     -67.96200000
H      -43.57580000     -34.91480000     -66.60220000
C      -45.67860000     -36.14510000     -70.41660000
H      -46.53100000     -35.93020000     -71.00260000
H      -46.00450000     -37.00890000     -69.80210000
C      -45.48490000     -31.36780000     -68.97100000
H      -46.28880000     -31.33540000     -69.74460000
H      -45.96780000     -30.82800000     -68.12350000
S      -44.22220000     -36.83600000     -71.48660000
S      -44.10940000     -30.37440000     -69.68610000
C      -43.32120000     -35.35090000     -71.82570000
H      -43.51580000     -34.58830000     -71.06570000
H      -42.20470000     -35.48650000     -71.85390000
C      -43.19590000     -31.52130000     -70.87380000
H      -43.44570000     -32.56380000     -70.57790000
H      -42.10320000     -31.36930000     -70.81890000
C      -43.76730000     -31.22990000     -72.34970000
H      -43.56500000     -30.18080000     -72.68540000
H      -43.20670000     -31.73620000     -73.10830000
C      -43.65490000     -34.59880000     -73.16850000
H      -43.46720000     -35.34320000     -73.86370000
H      -42.84350000     -33.86470000     -73.28440000
C      -45.07950000     -34.17860000     -73.38590000
C      -46.02430000     -35.04780000     -73.79790000
C      -45.72530000     -32.89920000     -72.97990000
H      -45.97810000     -36.11410000     -74.03020000
C      -47.09320000     -32.89560000     -73.12750000
C      -45.24300000     -31.55830000     -72.57670000
C      -46.28810000     -30.69860000     -72.39820000
S      -47.65770000     -34.35110000     -73.90830000
S      -47.86920000     -31.35130000     -72.80970000
H      -46.13520000     -29.68820000     -72.21590000
