40
Properties=species:S:1:pos:R:3 #=T CELL(abcABC):=T 1.889726e+02=T 90.00000=T Traj:=T positionsangstrom=T Step:=T 0=T Bead:=T pbc="F F F"
C      -44.39580000     -33.21990000     -67.67050000
C      -45.13830000     -32.87580000     -68.85470000
C      -45.65210000     -33.83590000     -69.72680000
C      -45.39840000     -35.18350000     -69.38110000
C      -44.48080000     -35.47910000     -68.33410000
C      -44.07230000     -34.53360000     -67.42880000
H      -44.12870000     -32.49040000     -66.99610000
H      -46.15140000     -33.58180000     -70.66970000
H      -44.09270000     -36.52760000     -68.25840000
H      -43.42120000     -34.81400000     -66.59510000
C      -45.69640000     -36.25920000     -70.36650000
H      -46.49250000     -35.87330000     -71.08110000
H      -46.11130000     -37.10200000     -69.85890000
C      -45.56350000     -31.37270000     -69.06790000
H      -46.31490000     -31.30970000     -69.82120000
H      -45.89240000     -30.93940000     -68.12900000
S      -44.08510000     -36.69790000     -71.22700000
S      -44.01190000     -30.31670000     -69.65930000
C      -43.42840000     -35.09060000     -71.78490000
H      -43.72630000     -34.35860000     -71.05680000
H      -42.35850000     -35.19560000     -71.65250000
C      -43.26150000     -31.29460000     -70.96330000
H      -43.20470000     -32.31940000     -70.55930000
H      -42.21730000     -31.01700000     -71.08580000
C      -43.83630000     -31.17130000     -72.44600000
H      -43.61990000     -30.09300000     -72.71490000
H      -43.16630000     -31.79750000     -73.08570000
C      -43.70970000     -34.68230000     -73.28040000
H      -43.49110000     -35.44540000     -74.04320000
H      -43.09880000     -33.79090000     -73.56690000
C      -45.16150000     -34.26210000     -73.51900000
C      -46.17960000     -35.12640000     -73.83540000
C      -45.67910000     -32.95700000     -73.17290000
H      -46.13100000     -36.18030000     -74.11650000
C      -47.08710000     -32.86690000     -73.25550000
C      -45.22020000     -31.69020000     -72.62110000
C      -46.21780000     -30.80850000     -72.31890000
S      -47.75460000     -34.36210000     -73.84040000
S      -47.87930000     -31.40360000     -72.73380000
H      -46.05700000     -29.85400000     -71.84470000
