40
Properties=species:S:1:pos:R:3 #=T CELL(abcABC):=T 1.889726e+02=T 90.00000=T Traj:=T positionsangstrom=T Step:=T 0=T Bead:=T pbc="F F F"
C      -43.05240000     -33.63460000     -74.46010000
C      -44.28390000     -34.29600000     -74.43640000
C      -45.40470000     -33.45470000     -74.34160000
C      -45.32240000     -32.05930000     -74.30560000
C      -44.09210000     -31.44550000     -74.37470000
C      -42.97300000     -32.21200000     -74.61090000
H      -42.07680000     -34.19560000     -74.61180000
H      -46.33610000     -33.95150000     -74.24290000
H      -43.94890000     -30.31560000     -74.43630000
H      -41.96250000     -31.74330000     -74.64460000
C      -46.54670000     -31.10370000     -74.26580000
H      -47.40750000     -31.61340000     -74.90490000
H      -46.25090000     -30.07710000     -74.72270000
C      -44.38340000     -35.78530000     -74.28660000
H      -45.47150000     -35.96420000     -74.11940000
H      -44.02450000     -36.29010000     -75.14760000
S      -47.18300000     -30.80100000     -72.58110000
S      -43.44990000     -36.54160000     -72.90180000
C      -47.85690000     -32.50780000     -72.22540000
H      -48.79070000     -32.42100000     -71.66500000
H      -48.10650000     -33.03560000     -73.17670000
C      -43.67910000     -35.53740000     -71.43310000
H      -43.75750000     -34.47710000     -71.71330000
H      -42.69950000     -35.64420000     -70.91620000
C      -44.86790000     -35.83090000     -70.43650000
H      -45.89290000     -35.70720000     -70.85170000
H      -44.88860000     -36.81600000     -70.00050000
C      -46.87110000     -33.37360000     -71.48430000
H      -45.89570000     -33.42050000     -71.97560000
H      -47.31690000     -34.40000000     -71.55250000
C      -46.62500000     -32.98960000     -70.10080000
C      -47.26030000     -31.90980000     -69.48140000
C      -45.74010000     -33.64030000     -69.19300000
H      -47.89360000     -31.08270000     -69.86950000
C      -45.63150000     -32.96760000     -68.02120000
C      -44.90160000     -34.87720000     -69.25560000
C      -44.26540000     -35.12020000     -68.06740000
S      -46.65370000     -31.49570000     -67.81470000
S      -44.58180000     -33.79090000     -66.90540000
H      -43.56300000     -35.91780000     -67.84300000
