40
Properties=species:S:1:pos:R:3 #=T CELL(abcABC):=T 1.889726e+02=T 90.00000=T Traj:=T positionsangstrom=T Step:=T 0=T Bead:=T pbc="F F F"
C      -47.16520000     -36.86750000     -72.27590000
C      -45.82440000     -36.76280000     -72.55810000
C      -45.42010000     -35.71850000     -73.44920000
C      -46.40090000     -34.89610000     -74.06010000
C      -47.74930000     -34.91970000     -73.49890000
C      -48.15290000     -35.95330000     -72.66350000
H      -47.39630000     -37.73130000     -71.61270000
H      -44.42120000     -35.55600000     -73.86590000
H      -48.47810000     -34.18570000     -73.89020000
H      -49.17060000     -36.15000000     -72.28010000
C      -46.08220000     -33.83700000     -75.13880000
H      -46.56390000     -34.06600000     -76.09560000
H      -44.94050000     -33.89970000     -75.26640000
C      -44.76320000     -37.61320000     -71.86690000
H      -45.27560000     -38.32700000     -71.23730000
H      -44.37000000     -38.30830000     -72.66640000
S      -46.57820000     -32.08660000     -74.65240000
S      -43.33150000     -36.85410000     -71.11720000
C      -46.02780000     -31.99430000     -72.90160000
H      -46.86480000     -31.36340000     -72.44920000
H      -46.06030000     -33.01720000     -72.53720000
C      -44.06290000     -35.48230000     -70.04090000
H      -43.38000000     -35.49460000     -69.19810000
H      -44.95620000     -35.84780000     -69.66450000
C      -44.26100000     -34.13350000     -70.71720000
H      -43.45230000     -33.80910000     -71.37940000
H      -45.12740000     -34.21690000     -71.37110000
C      -44.73660000     -31.22420000     -72.54700000
H      -44.70870000     -30.26510000     -73.13780000
H      -43.89130000     -31.82120000     -72.75710000
C      -44.65760000     -30.80380000     -71.10930000
C      -44.64560000     -29.44060000     -70.70980000
C      -44.70870000     -31.73290000     -69.95940000
H      -44.64400000     -28.49240000     -71.27150000
C      -44.82220000     -30.94840000     -68.83330000
C      -44.56690000     -33.11320000     -69.65020000
C      -44.79260000     -33.33740000     -68.33210000
S      -44.94710000     -29.20970000     -69.01860000
S      -45.03820000     -31.91150000     -67.33720000
H      -44.79560000     -34.30860000     -67.79770000
