40
Properties=species:S:1:pos:R:3 #=T CELL(abcABC):=T 1.889726e+02=T 90.00000=T Traj:=T positionsangstrom=T Step:=T 0=T Bead:=T pbc="F F F"
C      -44.77390000     -32.66970000     -67.56630000
C      -45.34250000     -32.62410000     -68.83890000
C      -45.40520000     -33.79200000     -69.60620000
C      -44.76030000     -34.98190000     -69.17310000
C      -44.18740000     -35.00960000     -67.92610000
C      -44.18160000     -33.86340000     -67.10050000
H      -44.60510000     -31.70770000     -67.00710000
H      -45.81880000     -33.72020000     -70.69960000
H      -43.65810000     -35.87220000     -67.63540000
H      -43.68110000     -34.01560000     -66.19320000
C      -44.97550000     -36.18980000     -70.02650000
H      -45.94280000     -36.02000000     -70.57820000
H      -45.07640000     -37.09430000     -69.37510000
C      -45.85330000     -31.36160000     -69.40750000
H      -46.57590000     -31.60190000     -70.22180000
H      -46.36540000     -30.65620000     -68.63420000
S      -43.48070000     -36.56400000     -71.06310000
S      -44.41430000     -30.34610000     -70.08040000
C      -43.07550000     -35.06330000     -72.05170000
H      -43.28980000     -34.23760000     -71.47550000
H      -41.95720000     -35.10610000     -72.15750000
C      -43.46420000     -31.29710000     -71.25150000
H      -43.36180000     -32.38530000     -70.97760000
H      -42.50480000     -30.84960000     -71.30910000
C      -44.02200000     -31.19270000     -72.68650000
H      -43.88560000     -30.07530000     -72.87670000
H      -43.34860000     -31.74410000     -73.31090000
C      -43.73460000     -34.79340000     -73.49090000
H      -43.59700000     -35.62690000     -74.24530000
H      -43.18300000     -33.99520000     -73.95730000
C      -45.19050000     -34.41030000     -73.33440000
C      -46.07870000     -35.39930000     -73.30890000
C      -45.84120000     -33.08970000     -73.10530000
H      -45.92570000     -36.49590000     -73.45690000
C      -47.24920000     -33.18680000     -73.06680000
C      -45.44340000     -31.69220000     -73.02190000
C      -46.50400000     -30.79930000     -73.19650000
S      -47.78380000     -34.81980000     -73.03910000
S      -48.10140000     -31.58810000     -73.16210000
H      -46.46900000     -29.79790000     -73.13480000
