40
Properties=species:S:1:pos:R:3 #=T CELL(abcABC):=T 1.889726e+02=T 90.00000=T Traj:=T positionsangstrom=T Step:=T 0=T Bead:=T pbc="F F F"
C      -44.58220000     -32.78780000     -67.73980000
C      -45.26260000     -32.78620000     -68.95430000
C      -45.42400000     -33.99550000     -69.64350000
C      -45.07100000     -35.20800000     -69.06320000
C      -44.35860000     -35.21690000     -67.85900000
C      -44.11130000     -34.00380000     -67.22120000
H      -44.39310000     -31.81350000     -67.19350000
H      -46.08470000     -34.04120000     -70.53940000
H      -44.15380000     -36.09110000     -67.36580000
H      -43.60600000     -33.96900000     -66.26980000
C      -45.09800000     -36.43190000     -69.95650000
H      -45.88550000     -36.50360000     -70.66100000
H      -45.12740000     -37.34090000     -69.33600000
C      -45.84060000     -31.47870000     -69.50330000
H      -46.53400000     -31.76910000     -70.29270000
H      -46.27090000     -30.92050000     -68.61670000
S      -43.39840000     -36.63090000     -70.88500000
S      -44.52910000     -30.28260000     -70.03250000
C      -43.23350000     -35.07530000     -71.92130000
H      -43.42060000     -34.18980000     -71.22480000
H      -42.18780000     -34.95640000     -72.15730000
C      -43.36150000     -31.07390000     -71.19490000
H      -43.08290000     -32.06990000     -70.76260000
H      -42.38100000     -30.55960000     -71.21140000
C      -43.79850000     -31.16820000     -72.73200000
H      -43.70060000     -30.18570000     -73.09350000
H      -42.96020000     -31.69870000     -73.33620000
C      -43.97390000     -34.92440000     -73.21900000
H      -44.07000000     -35.82300000     -73.74280000
H      -43.35450000     -34.26310000     -73.87100000
C      -45.35800000     -34.38280000     -73.18720000
C      -46.34870000     -35.32020000     -73.37500000
C      -45.74660000     -32.98110000     -73.12640000
H      -46.19710000     -36.41200000     -73.27500000
C      -47.18180000     -33.00340000     -73.21590000
C      -45.21370000     -31.67530000     -72.99810000
C      -46.25380000     -30.77110000     -73.04230000
S      -47.92460000     -34.57730000     -73.45220000
S      -47.86870000     -31.45900000     -73.09280000
H      -46.11260000     -29.75740000     -73.00920000
