40
Properties=species:S:1:pos:R:3 #=T CELL(abcABC):=T 1.889726e+02=T 90.00000=T Traj:=T positionsangstrom=T Step:=T 0=T Bead:=T pbc="F F F"
C      -44.58170000     -32.68930000     -67.53680000
C      -45.15900000     -32.49800000     -68.84320000
C      -45.30170000     -33.56460000     -69.67130000
C      -44.99870000     -34.88490000     -69.26940000
C      -44.42070000     -35.02370000     -67.97300000
C      -44.12130000     -33.92270000     -67.17870000
H      -44.39810000     -31.82890000     -66.95260000
H      -45.78960000     -33.37220000     -70.57030000
H      -44.09290000     -36.09320000     -67.79780000
H      -43.47670000     -34.02120000     -66.28780000
C      -45.27100000     -36.02870000     -70.11800000
H      -46.14130000     -35.95390000     -70.81360000
H      -45.50960000     -36.85690000     -69.42420000
C      -45.73640000     -31.16080000     -69.19940000
H      -46.64460000     -31.23100000     -69.85590000
H      -45.88620000     -30.53380000     -68.33680000
S      -43.72500000     -36.58750000     -70.95430000
S      -44.39920000     -30.11990000     -70.09570000
C      -43.05480000     -35.02390000     -71.78510000
H      -43.26060000     -34.07170000     -71.10820000
H      -41.99470000     -35.20930000     -71.91320000
C      -43.44440000     -31.13080000     -71.36590000
H      -43.29350000     -32.12590000     -70.94240000
H      -42.42710000     -30.69560000     -71.31150000
C      -44.02700000     -31.29970000     -72.78380000
H      -43.84160000     -30.39690000     -73.32920000
H      -43.42460000     -31.98020000     -73.39110000
C      -43.56150000     -34.76180000     -73.26780000
H      -43.45220000     -35.69310000     -73.85740000
H      -43.02710000     -33.84940000     -73.71420000
C      -45.06540000     -34.40340000     -73.29520000
C      -45.92540000     -35.42890000     -73.57810000
C      -45.86080000     -33.15850000     -73.05300000
H      -45.49470000     -36.32070000     -73.93970000
C      -47.22140000     -33.34680000     -73.15830000
C      -45.48090000     -31.77960000     -72.85080000
C      -46.58400000     -30.90910000     -72.77020000
S      -47.64460000     -35.01190000     -73.42460000
S      -48.12790000     -31.77800000     -73.07380000
H      -46.56410000     -29.83960000     -72.72190000
