40
Properties=species:S:1:pos:R:3 #=T CELL(abcABC):=T 1.889726e+02=T 90.00000=T Traj:=T positionsangstrom=T Step:=T 0=T Bead:=T pbc="F F F"
C      -44.45860000     -32.12680000     -67.88010000
C      -45.24150000     -32.18150000     -68.98840000
C      -45.48080000     -33.40550000     -69.60600000
C      -44.95770000     -34.57290000     -69.06300000
C      -44.16050000     -34.50020000     -67.85250000
C      -43.99140000     -33.27800000     -67.24250000
H      -44.21790000     -31.16250000     -67.38470000
H      -46.09370000     -33.37680000     -70.45100000
H      -43.81080000     -35.43860000     -67.37810000
H      -43.31730000     -33.18450000     -66.33680000
C      -45.13900000     -35.89150000     -69.73440000
H      -45.86860000     -35.87940000     -70.51410000
H      -45.34020000     -36.71370000     -69.07920000
C      -45.84280000     -30.92830000     -69.54810000
H      -46.70890000     -31.17760000     -70.15090000
H      -46.00070000     -30.31980000     -68.72230000
S      -43.61710000     -36.54300000     -70.51000000
S      -44.73360000     -30.04070000     -70.81140000
C      -43.04810000     -35.19840000     -71.55970000
H      -43.05720000     -34.32680000     -70.96350000
H      -41.98800000     -35.26320000     -71.61930000
C      -43.70970000     -31.30000000     -71.53510000
H      -44.01780000     -32.14470000     -70.92550000
H      -42.63440000     -31.25370000     -71.26920000
C      -43.88650000     -31.56070000     -73.03370000
H      -43.68660000     -30.64840000     -73.57440000
H      -43.12210000     -32.32940000     -73.34840000
C      -43.72070000     -35.13540000     -72.97380000
H      -43.61580000     -36.14670000     -73.36470000
H      -43.07010000     -34.56110000     -73.63760000
C      -45.20520000     -34.77710000     -73.04380000
C      -46.17350000     -35.72160000     -72.87950000
C      -45.72090000     -33.39770000     -73.05260000
H      -46.04020000     -36.77940000     -72.65590000
C      -47.08780000     -33.47080000     -73.08130000
C      -45.30720000     -32.01670000     -73.24600000
C      -46.36840000     -31.13310000     -73.40000000
S      -47.74500000     -35.10400000     -72.88050000
S      -47.91620000     -31.94540000     -73.37830000
H      -46.22970000     -30.03900000     -73.60740000
