40
Properties=species:S:1:pos:R:3 #=T CELL(abcABC):=T 1.889726e+02=T 90.00000=T Traj:=T positionsangstrom=T Step:=T 0=T Bead:=T pbc="F F F"
C      -44.54220000     -32.21610000     -67.72580000
C      -45.17820000     -32.18990000     -68.93470000
C      -45.36710000     -33.41810000     -69.59110000
C      -44.97750000     -34.59380000     -68.96090000
C      -44.38870000     -34.60720000     -67.66290000
C      -44.12680000     -33.40010000     -67.05870000
H      -44.30140000     -31.30800000     -67.24500000
H      -45.87470000     -33.62930000     -70.61010000
H      -44.04840000     -35.54350000     -67.30160000
H      -43.61200000     -33.32090000     -66.04900000
C      -45.21960000     -35.82960000     -69.80840000
H      -46.04100000     -35.80750000     -70.59740000
H      -45.47090000     -36.67270000     -69.17050000
C      -45.63500000     -30.87440000     -69.56630000
H      -46.39700000     -31.10280000     -70.28830000
H      -45.93850000     -30.18610000     -68.78170000
S      -43.76260000     -36.45270000     -70.75590000
S      -44.18810000     -30.02470000     -70.48710000
C      -43.09110000     -35.04230000     -71.76230000
H      -43.18430000     -34.00180000     -71.31950000
H      -41.98020000     -35.04110000     -71.92460000
C      -43.47920000     -31.33100000     -71.58790000
H      -43.43640000     -32.28750000     -70.98100000
H      -42.41920000     -31.00890000     -71.65430000
C      -44.13100000     -31.39230000     -72.99290000
H      -44.18290000     -30.48340000     -73.59970000
H      -43.40530000     -32.05940000     -73.60510000
C      -43.70110000     -34.99650000     -73.16740000
H      -43.40250000     -35.94510000     -73.70350000
H      -43.20770000     -34.18810000     -73.68510000
C      -45.20380000     -34.74400000     -73.16730000
C      -46.13930000     -35.68240000     -73.35820000
C      -45.79830000     -33.42030000     -73.05810000
H      -45.99300000     -36.73250000     -73.36230000
C      -47.22710000     -33.57290000     -73.16530000
C      -45.44360000     -32.03520000     -73.05630000
C      -46.50210000     -31.20900000     -72.81650000
S      -47.74720000     -35.15150000     -73.36790000
S      -48.05230000     -32.05990000     -73.02070000
H      -46.48710000     -30.14020000     -72.79880000
