40
Properties=species:S:1:pos:R:3 #=T CELL(abcABC):=T 1.889726e+02=T 90.00000=T Traj:=T positionsangstrom=T Step:=T 0=T Bead:=T pbc="F F F"
C      -44.23320000     -32.35760000     -67.76220000
C      -44.98370000     -32.21510000     -68.90540000
C      -45.44690000     -33.32660000     -69.56780000
C      -45.08320000     -34.64060000     -69.13130000
C      -44.32780000     -34.78480000     -67.94270000
C      -43.93610000     -33.63940000     -67.23360000
H      -43.98470000     -31.45720000     -67.17490000
H      -46.01620000     -33.06810000     -70.44110000
H      -44.27400000     -35.80200000     -67.51300000
H      -43.59020000     -33.75870000     -66.23170000
C      -45.48640000     -35.72890000     -69.99870000
H      -46.28300000     -35.45010000     -70.71890000
H      -45.97580000     -36.54420000     -69.42950000
C      -45.40010000     -30.84080000     -69.27010000
H      -46.32810000     -30.92560000     -69.84450000
H      -45.53900000     -30.26180000     -68.34090000
S      -44.02470000     -36.46760000     -70.96200000
S      -44.15600000     -29.86350000     -70.28600000
C      -43.18290000     -34.98460000     -71.69640000
H      -43.32050000     -34.06720000     -71.05930000
H      -42.17570000     -35.33070000     -71.69590000
C      -43.43870000     -31.05720000     -71.49210000
H      -43.39770000     -32.03120000     -70.94740000
H      -42.41760000     -30.75150000     -71.72850000
C      -44.19240000     -31.41760000     -72.80580000
H      -44.06610000     -30.46960000     -73.48090000
H      -43.51090000     -32.13210000     -73.37910000
C      -43.57350000     -34.73270000     -73.17450000
H      -43.15960000     -35.57540000     -73.67870000
H      -43.01420000     -33.82610000     -73.38610000
C      -45.06640000     -34.56810000     -73.40530000
C      -45.85460000     -35.69910000     -73.55090000
C      -45.83990000     -33.37710000     -73.10320000
H      -45.56880000     -36.76560000     -73.46820000
C      -47.26010000     -33.62060000     -73.08470000
C      -45.58870000     -31.98230000     -72.85300000
C      -46.74320000     -31.23610000     -72.76370000
S      -47.59430000     -35.32700000     -73.38590000
S      -48.16580000     -32.19410000     -72.94040000
H      -46.82120000     -30.17290000     -72.40530000
