40
Properties=species:S:1:pos:R:3 #=T CELL(abcABC):=T 1.889726e+02=T 90.00000=T Traj:=T positionsangstrom=T Step:=T 0=T Bead:=T pbc="F F F"
C      -42.90910000     -32.74680000     -70.70070000
C      -43.14150000     -33.51230000     -69.52330000
C      -44.14100000     -33.07490000     -68.66070000
C      -44.95540000     -31.94470000     -69.05800000
C      -44.69040000     -31.24590000     -70.22630000
C      -43.65020000     -31.64170000     -71.03770000
H      -42.11390000     -33.01640000     -71.43270000
H      -44.43920000     -33.61160000     -67.80430000
H      -45.26670000     -30.39560000     -70.45570000
H      -43.41010000     -31.15400000     -71.93280000
C      -46.08580000     -31.52060000     -68.22530000
H      -46.01640000     -30.43680000     -67.98970000
H      -46.11100000     -32.11690000     -67.34000000
C      -42.40760000     -34.84390000     -69.25400000
H      -41.37660000     -34.80630000     -69.31580000
H      -42.68560000     -35.28030000     -68.32320000
S      -47.78160000     -31.77420000     -69.14930000
S      -43.04730000     -36.07280000     -70.51300000
C      -47.78920000     -33.46220000     -69.72070000
H      -46.74520000     -33.82940000     -69.70230000
H      -48.35160000     -34.03330000     -69.02570000
C      -44.90500000     -35.90050000     -70.33740000
H      -45.20180000     -34.92250000     -69.98200000
H      -45.35330000     -36.69940000     -69.66990000
C      -45.55250000     -36.08740000     -71.66910000
H      -45.07970000     -36.98000000     -72.00840000
H      -46.59580000     -36.32670000     -71.41860000
C      -48.31630000     -33.70650000     -71.09920000
H      -49.31100000     -33.26440000     -71.25530000
H      -48.48320000     -34.76720000     -71.35130000
C      -47.40510000     -33.29430000     -72.27800000
C      -47.68750000     -32.04410000     -72.82290000
C      -46.20000000     -33.85870000     -72.88350000
H      -48.42270000     -31.42740000     -72.38850000
C      -45.61630000     -32.96760000     -73.84330000
C      -45.34180000     -35.02600000     -72.64450000
C      -44.12280000     -34.94360000     -73.35610000
S      -46.48680000     -31.49160000     -73.98040000
S      -44.05740000     -33.58390000     -74.40570000
H      -43.25160000     -35.67960000     -73.21380000
