40
Properties=species:S:1:pos:R:3 #=T CELL(abcABC):=T 1.889726e+02=T 90.00000=T Traj:=T positionsangstrom=T Step:=T 0=T Bead:=T pbc="F F F"
C      -44.41550000     -31.86960000     -68.18130000
C      -45.31250000     -32.15860000     -69.14940000
C      -45.62830000     -33.50280000     -69.42410000
C      -45.02790000     -34.54880000     -68.77380000
C      -44.07490000     -34.21020000     -67.77520000
C      -43.79370000     -32.85780000     -67.47340000
H      -44.10710000     -30.83100000     -68.05330000
H      -46.40040000     -33.72550000     -70.29560000
H      -43.62620000     -35.02410000     -67.17920000
H      -43.02650000     -32.62250000     -66.82650000
C      -45.35040000     -35.92430000     -69.12000000
H      -46.25680000     -35.95690000     -69.60690000
H      -45.25740000     -36.63140000     -68.24580000
C      -45.92890000     -31.03990000     -70.02630000
H      -46.60840000     -31.50730000     -70.82710000
H      -46.57030000     -30.39570000     -69.40240000
S      -44.09630000     -36.76110000     -70.30700000
S      -44.67210000     -29.87840000     -70.67480000
C      -43.20870000     -35.33060000     -71.07330000
H      -43.25390000     -34.43650000     -70.48880000
H      -42.18630000     -35.60140000     -70.97630000
C      -43.48160000     -31.14250000     -71.49560000
H      -43.43340000     -32.05230000     -70.98420000
H      -42.49620000     -30.80440000     -71.38510000
C      -43.82520000     -31.53430000     -73.01760000
H      -43.73200000     -30.59610000     -73.60490000
H      -43.06430000     -32.21100000     -73.43380000
C      -43.59890000     -35.08640000     -72.58860000
H      -43.44920000     -36.02780000     -73.16030000
H      -42.89030000     -34.28900000     -72.93580000
C      -45.05370000     -34.78770000     -72.81180000
C      -45.99980000     -35.78470000     -72.91440000
C      -45.67830000     -33.51230000     -73.10320000
H      -45.86070000     -36.80940000     -72.61980000
C      -47.06840000     -33.56000000     -73.34830000
C      -45.16300000     -32.14220000     -73.29170000
C      -46.22260000     -31.23580000     -73.60580000
S      -47.72160000     -35.15510000     -73.08510000
S      -47.78380000     -32.00860000     -73.75860000
H      -46.22390000     -30.19420000     -73.66630000
