40
Properties=species:S:1:pos:R:3 #=T CELL(abcABC):=T 1.889726e+02=T 90.00000=T Traj:=T positionsangstrom=T Step:=T 0=T Bead:=T pbc="F F F"
C      -44.36630000     -31.78700000     -67.99730000
C      -45.24480000     -31.98430000     -69.04140000
C      -45.64070000     -33.28530000     -69.30470000
C      -45.26060000     -34.41050000     -68.59480000
C      -44.50610000     -34.17170000     -67.45700000
C      -44.01760000     -32.88950000     -67.20300000
H      -44.05990000     -30.81500000     -67.76950000
H      -46.19680000     -33.42070000     -70.16400000
H      -44.06940000     -35.02090000     -66.87670000
H      -43.31250000     -32.80430000     -66.31700000
C      -45.61150000     -35.82950000     -69.06980000
H      -46.52120000     -35.86220000     -69.66430000
H      -45.69170000     -36.59100000     -68.26050000
C      -45.68060000     -30.93410000     -69.98130000
H      -46.50190000     -31.27560000     -70.61310000
H      -46.24000000     -30.20080000     -69.31790000
S      -44.29080000     -36.61790000     -70.11750000
S      -44.38330000     -30.02820000     -70.92620000
C      -43.43910000     -35.23720000     -71.04230000
H      -43.81090000     -34.27290000     -70.59490000
H      -42.34990000     -35.33090000     -70.87810000
C      -43.40940000     -31.44710000     -71.71990000
H      -43.59390000     -32.39870000     -71.17720000
H      -42.34190000     -31.06730000     -71.62360000
C      -43.71020000     -31.68860000     -73.20550000
H      -43.46160000     -30.73800000     -73.64520000
H      -43.06800000     -32.46350000     -73.68070000
C      -43.66290000     -35.24390000     -72.48780000
H      -43.41330000     -36.23110000     -72.92230000
H      -42.99720000     -34.53190000     -73.01910000
C      -45.10240000     -34.89860000     -72.88230000
C      -46.06580000     -35.83930000     -72.95740000
C      -45.59740000     -33.54270000     -73.17220000
H      -45.87420000     -36.87590000     -72.72710000
C      -46.96570000     -33.61560000     -73.46190000
C      -45.09800000     -32.15040000     -73.36740000
C      -46.10360000     -31.25180000     -73.55900000
S      -47.67870000     -35.12720000     -73.26750000
S      -47.65040000     -32.02620000     -73.78770000
H      -45.80100000     -30.19280000     -73.71930000
