40
Properties=species:S:1:pos:R:3 #=T CELL(abcABC):=T 1.889726e+02=T 90.00000=T Traj:=T positionsangstrom=T Step:=T 0=T Bead:=T pbc="F F F"
C      -44.65580000     -31.80900000     -67.84020000
C      -45.31390000     -31.91040000     -69.05030000
C      -45.66040000     -33.14770000     -69.61720000
C      -45.40410000     -34.29770000     -68.90190000
C      -44.79860000     -34.22580000     -67.66370000
C      -44.44040000     -32.97930000     -67.14300000
H      -44.18450000     -30.86080000     -67.51080000
H      -46.05710000     -33.16350000     -70.64510000
H      -44.59400000     -35.14940000     -67.22800000
H      -43.88730000     -32.86700000     -66.30710000
C      -45.67390000     -35.67030000     -69.62310000
H      -46.27090000     -35.39740000     -70.49480000
H      -46.23660000     -36.33130000     -68.98240000
C      -45.58170000     -30.68030000     -69.88870000
H      -46.28620000     -30.96710000     -70.71370000
H      -45.87710000     -29.80290000     -69.26300000
S      -44.17540000     -36.72140000     -70.05330000
S      -43.99420000     -30.07620000     -70.83960000
C      -43.26450000     -35.52640000     -71.17260000
H      -43.27860000     -34.56970000     -70.65640000
H      -42.21830000     -35.87610000     -71.13040000
C      -43.20890000     -31.53080000     -71.44130000
H      -43.50720000     -32.38160000     -70.81790000
H      -42.10070000     -31.46790000     -71.40380000
C      -43.60760000     -31.85980000     -72.95770000
H      -43.48440000     -30.86310000     -73.48270000
H      -42.86960000     -32.64630000     -73.22880000
C      -43.76060000     -35.36710000     -72.63290000
H      -43.66710000     -36.35160000     -73.07910000
H      -43.08960000     -34.73090000     -73.24360000
C      -45.21430000     -34.98410000     -72.79200000
C      -46.29540000     -35.80760000     -72.78510000
C      -45.62270000     -33.61080000     -73.11300000
H      -46.26650000     -36.83300000     -72.61130000
C      -47.00910000     -33.48840000     -73.37060000
C      -45.04300000     -32.22910000     -73.13000000
C      -45.98990000     -31.25760000     -73.57890000
S      -47.81000000     -35.04640000     -73.29460000
S      -47.61480000     -31.87770000     -73.79160000
H      -45.77910000     -30.22110000     -73.62930000
