40
Properties=species:S:1:pos:R:3 #=T CELL(abcABC):=T 1.889726e+02=T 90.00000=T Traj:=T positionsangstrom=T Step:=T 0=T Bead:=T pbc="F F F"
C      -44.34610000     -31.80400000     -68.11720000
C      -45.21540000     -32.04770000     -69.16870000
C      -45.60920000     -33.37460000     -69.38400000
C      -45.14760000     -34.44650000     -68.63230000
C      -44.26190000     -34.15090000     -67.59810000
C      -43.93010000     -32.83520000     -67.29480000
H      -43.97520000     -30.83020000     -68.03640000
H      -46.34670000     -33.60820000     -70.16280000
H      -43.88670000     -34.92440000     -66.90960000
H      -43.16480000     -32.75250000     -66.41010000
C      -45.57990000     -35.85770000     -68.99260000
H      -46.55700000     -35.94910000     -69.57280000
H      -45.76190000     -36.49570000     -68.18270000
C      -45.79530000     -30.97070000     -69.96490000
H      -46.45550000     -31.36090000     -70.69020000
H      -46.27070000     -30.19480000     -69.29630000
S      -44.30150000     -36.61050000     -70.12010000
S      -44.50910000     -30.04980000     -70.92360000
C      -43.40670000     -35.19680000     -71.03610000
H      -43.61270000     -34.28530000     -70.52360000
H      -42.41020000     -35.35920000     -70.77840000
C      -43.42570000     -31.31020000     -71.51320000
H      -43.44540000     -32.12040000     -70.84950000
H      -42.41550000     -30.96880000     -71.54040000
C      -43.70630000     -31.68760000     -72.99530000
H      -43.53520000     -30.87720000     -73.68520000
H      -43.00550000     -32.52190000     -73.22370000
C      -43.66950000     -35.01850000     -72.51490000
H      -43.22880000     -35.88620000     -73.02420000
H      -43.03580000     -34.22430000     -72.83870000
C      -45.12980000     -34.74690000     -72.83650000
C      -45.97950000     -35.78650000     -72.89860000
C      -45.70580000     -33.50330000     -73.13140000
H      -45.79920000     -36.83220000     -72.71900000
C      -47.05050000     -33.65750000     -73.43890000
C      -45.14320000     -32.19010000     -73.23210000
C      -46.11490000     -31.30590000     -73.61920000
S      -47.60710000     -35.27530000     -73.37240000
S      -47.69910000     -32.00380000     -73.75360000
H      -45.94390000     -30.21740000     -73.89590000
