40
Properties=species:S:1:pos:R:3 #=T CELL(abcABC):=T 1.889726e+02=T 90.00000=T Traj:=T positionsangstrom=T Step:=T 0=T Bead:=T pbc="F F F"
C      -42.81060000     -33.48550000     -74.69410000
C      -44.02040000     -34.21840000     -74.57770000
C      -45.20150000     -33.36840000     -74.46420000
C      -45.20900000     -31.98510000     -74.57410000
C      -43.98390000     -31.35430000     -74.74750000
C      -42.82780000     -32.09920000     -74.75070000
H      -41.94280000     -34.02350000     -74.82820000
H      -46.14920000     -33.94300000     -74.27180000
H      -43.91090000     -30.31740000     -74.80380000
H      -41.91400000     -31.68280000     -75.08950000
C      -46.51220000     -31.25290000     -74.45510000
H      -47.42440000     -31.62250000     -74.97800000
H      -46.39970000     -30.21300000     -74.68980000
C      -44.02430000     -35.73860000     -74.51850000
H      -44.93030000     -36.22240000     -74.72820000
H      -43.27190000     -36.17190000     -75.19090000
S      -47.18370000     -31.02970000     -72.64700000
S      -43.52950000     -36.38260000     -72.82190000
C      -48.09950000     -32.53570000     -72.09730000
H      -48.97420000     -32.16240000     -71.57060000
H      -48.43560000     -33.07070000     -72.92590000
C      -44.06380000     -35.06450000     -71.53580000
H      -44.69740000     -34.28920000     -71.97540000
H      -43.09420000     -34.61500000     -71.25860000
C      -44.83180000     -35.74230000     -70.41040000
H      -45.85580000     -35.99520000     -70.66350000
H      -44.31380000     -36.65070000     -70.14360000
C      -47.27970000     -33.53830000     -71.27080000
H      -46.34330000     -33.80600000     -71.88530000
H      -47.79780000     -34.51000000     -71.18730000
C      -46.87350000     -33.16100000     -69.86250000
C      -47.33520000     -31.95630000     -69.30810000
C      -45.80600000     -33.69840000     -69.09170000
H      -48.14310000     -31.33310000     -69.69810000
C      -45.66370000     -33.04000000     -67.84510000
C      -44.95020000     -34.88720000     -69.14270000
C      -44.25670000     -35.14530000     -67.94830000
S      -46.57080000     -31.55980000     -67.73280000
S      -44.55680000     -33.84860000     -66.77070000
H      -43.64870000     -36.00490000     -67.71160000
