40
Properties=species:S:1:pos:R:3 #=T CELL(abcABC):=T 1.889726e+02=T 90.00000=T Traj:=T positionsangstrom=T Step:=T 0=T Bead:=T pbc="F F F"
C      -46.27280000     -31.20940000     -68.17290000
C      -44.90560000     -31.60430000     -68.30150000
C      -44.22020000     -31.20240000     -69.46160000
C      -44.78900000     -30.26990000     -70.38060000
C      -46.12620000     -29.90810000     -70.19320000
C      -46.88950000     -30.46060000     -69.17900000
H      -46.78730000     -31.55160000     -67.22130000
H      -43.15670000     -31.57000000     -69.62270000
H      -46.64940000     -29.29460000     -70.88750000
H      -47.91140000     -30.14590000     -69.12930000
C      -44.06260000     -29.81520000     -71.64490000
H      -43.11120000     -30.21720000     -71.65080000
H      -43.88090000     -28.74750000     -71.63360000
C      -44.26400000     -32.50780000     -67.30720000
H      -43.18720000     -32.58290000     -67.45670000
H      -44.37480000     -32.17250000     -66.25650000
S      -44.89390000     -30.09490000     -73.27510000
S      -44.96480000     -34.29060000     -67.47700000
C      -45.27550000     -31.86820000     -73.18650000
H      -46.24670000     -32.02860000     -72.61230000
H      -45.43850000     -32.12120000     -74.21530000
C      -44.89970000     -34.46940000     -69.32910000
H      -44.80430000     -35.54750000     -69.58410000
H      -44.00020000     -34.00400000     -69.60460000
C      -46.20480000     -34.10000000     -70.16830000
H      -47.07810000     -34.22640000     -69.54850000
H      -46.18180000     -33.11550000     -70.61510000
C      -44.11080000     -32.71460000     -72.74990000
H      -44.00080000     -32.59470000     -71.67930000
H      -43.23310000     -32.31300000     -73.25450000
C      -44.42530000     -34.15870000     -73.11100000
C      -44.05940000     -34.57270000     -74.34290000
C      -45.47670000     -35.00900000     -72.55600000
H      -43.22720000     -34.10130000     -74.88980000
C      -45.64180000     -36.13540000     -73.35910000
C      -46.27450000     -35.10280000     -71.36020000
C      -47.13790000     -36.15660000     -71.35000000
S      -44.77970000     -36.14510000     -74.80850000
S      -46.91230000     -37.16180000     -72.74710000
H      -47.88000000     -36.46260000     -70.64010000
