40
Properties=species:S:1:pos:R:3 #=T CELL(abcABC):=T 1.889726e+02=T 90.00000=T Traj:=T positionsangstrom=T Step:=T 0=T Bead:=T pbc="F F F"
C      -42.83050000     -32.76520000     -70.63390000
C      -43.16140000     -33.62130000     -69.57820000
C      -44.21740000     -33.21570000     -68.74860000
C      -44.92730000     -31.99190000     -68.95530000
C      -44.55190000     -31.15280000     -70.02070000
C      -43.45460000     -31.49900000     -70.79780000
H      -42.03890000     -32.86780000     -71.34710000
H      -44.41420000     -33.85070000     -67.89760000
H      -45.17290000     -30.24840000     -70.13170000
H      -43.14700000     -30.97870000     -71.59050000
C      -46.15990000     -31.71990000     -68.13210000
H      -46.19740000     -30.77870000     -67.62710000
H      -46.17420000     -32.45160000     -67.30720000
C      -42.48340000     -34.97210000     -69.41180000
H      -41.38300000     -34.91150000     -69.54530000
H      -42.75940000     -35.50400000     -68.44430000
S      -47.67250000     -31.80560000     -69.12510000
S      -43.06870000     -36.10520000     -70.74820000
C      -47.57570000     -33.56630000     -69.63100000
H      -46.56080000     -33.87720000     -69.45400000
H      -48.18210000     -34.11180000     -68.79170000
C      -44.92350000     -36.15790000     -70.42540000
H      -45.02310000     -35.39010000     -69.72280000
H      -45.14910000     -37.06630000     -69.87460000
C      -45.75760000     -36.07610000     -71.67240000
H      -45.59560000     -36.95510000     -72.34840000
H      -46.79970000     -35.99500000     -71.47760000
C      -48.14080000     -33.64460000     -71.07370000
H      -49.09540000     -33.13960000     -70.92300000
H      -48.34730000     -34.70190000     -71.36730000
C      -47.28370000     -32.99280000     -72.10170000
C      -47.55290000     -31.76650000     -72.70070000
C      -46.12160000     -33.60030000     -72.68040000
H      -48.43690000     -31.19890000     -72.55420000
C      -45.60220000     -32.88550000     -73.76090000
C      -45.49440000     -34.90500000     -72.61940000
C      -44.47660000     -35.08110000     -73.55540000
S      -46.48490000     -31.42010000     -74.01470000
S      -44.22400000     -33.63180000     -74.48870000
H      -43.70120000     -35.91350000     -73.79140000
