40
Properties=species:S:1:pos:R:3 #=T CELL(abcABC):=T 1.889726e+02=T 90.00000=T Traj:=T positionsangstrom=T Step:=T 0=T Bead:=T pbc="F F F"
C      -42.68550000     -32.65700000     -70.62620000
C      -43.17040000     -33.66640000     -69.78740000
C      -44.24280000     -33.36030000     -68.94340000
C      -44.84830000     -32.10450000     -68.92320000
C      -44.26600000     -31.05760000     -69.68660000
C      -43.17760000     -31.36100000     -70.48740000
H      -41.90710000     -32.86270000     -71.37770000
H      -44.56110000     -34.19360000     -68.33660000
H      -44.58090000     -29.99930000     -69.60890000
H      -42.74870000     -30.41010000     -70.90870000
C      -46.00150000     -31.77680000     -67.89850000
H      -45.80360000     -30.82000000     -67.37370000
H      -46.13750000     -32.56800000     -67.17150000
C      -42.59150000     -35.06060000     -69.77900000
H      -41.49470000     -35.10170000     -70.06460000
H      -42.68620000     -35.48370000     -68.78580000
S      -47.61820000     -31.77270000     -68.86370000
S      -43.30360000     -36.24570000     -71.03470000
C      -47.61040000     -33.52020000     -69.53690000
H      -46.47940000     -33.77550000     -69.54970000
H      -48.10350000     -34.30120000     -68.94080000
C      -45.16070000     -36.11440000     -70.69500000
H      -45.32270000     -35.20180000     -70.16570000
H      -45.39110000     -36.93280000     -69.98170000
C      -46.04070000     -36.20360000     -71.99150000
H      -46.04180000     -37.07890000     -72.57360000
H      -47.06530000     -36.09490000     -71.65070000
C      -48.08460000     -33.60450000     -70.96220000
H      -49.13680000     -33.26000000     -70.96360000
H      -48.16850000     -34.66410000     -71.03300000
C      -47.15410000     -32.98920000     -71.97520000
C      -47.14450000     -31.64700000     -72.16810000
C      -46.18440000     -33.67390000     -72.81180000
H      -47.62940000     -30.80650000     -71.71240000
C      -45.72120000     -32.85730000     -73.81060000
C      -45.62880000     -34.96620000     -72.86130000
C      -44.70360000     -35.14020000     -73.80850000
S      -46.28990000     -31.25930000     -73.71650000
S      -44.37330000     -33.64270000     -74.66530000
H      -44.19000000     -35.98960000     -74.04580000
