40
Properties=species:S:1:pos:R:3 #=T CELL(abcABC):=T 1.889726e+02=T 90.00000=T Traj:=T positionsangstrom=T Step:=T 0=T Bead:=T pbc="F F F"
C      -42.86720000     -33.03950000     -70.92340000
C      -43.25600000     -33.84230000     -69.84030000
C      -44.13550000     -33.39190000     -68.86460000
C      -44.61840000     -32.06650000     -68.94740000
C      -44.24850000     -31.26580000     -70.01490000
C      -43.34820000     -31.71800000     -70.95290000
H      -42.24380000     -33.45740000     -71.74500000
H      -44.39850000     -34.07740000     -68.01370000
H      -44.57910000     -30.26230000     -70.01190000
H      -42.93710000     -31.08470000     -71.82210000
C      -45.65970000     -31.56870000     -68.00460000
H      -45.56650000     -30.50880000     -67.64760000
H      -45.66930000     -32.14200000     -67.04220000
C      -42.58780000     -35.21420000     -69.80980000
H      -41.56450000     -35.22600000     -70.15370000
H      -42.73930000     -35.74750000     -68.89430000
S      -47.37520000     -31.81810000     -68.65990000
S      -43.33380000     -36.27900000     -71.16300000
C      -47.47710000     -33.59360000     -69.31120000
H      -46.53130000     -33.98630000     -69.22850000
H      -48.11600000     -34.24670000     -68.61660000
C      -45.18360000     -36.18810000     -70.77370000
H      -45.38900000     -35.26280000     -70.24890000
H      -45.50740000     -37.04590000     -70.19780000
C      -45.93310000     -36.16100000     -72.12710000
H      -45.62990000     -37.06110000     -72.72630000
H      -47.02100000     -36.16490000     -71.90800000
C      -47.91080000     -33.77880000     -70.76780000
H      -48.92200000     -33.43430000     -70.73330000
H      -48.04890000     -34.86160000     -70.86170000
C      -47.15170000     -33.03270000     -71.87960000
C      -47.32530000     -31.70820000     -71.97900000
C      -46.24350000     -33.62760000     -72.83850000
H      -47.89770000     -31.09080000     -71.22080000
C      -45.85310000     -32.69120000     -73.78110000
C      -45.63740000     -34.94110000     -73.02590000
C      -44.71880000     -34.95280000     -74.00730000
S      -46.40640000     -31.00460000     -73.28640000
S      -44.58540000     -33.37500000     -74.71780000
H      -44.10820000     -35.83410000     -74.52440000
