40
Properties=species:S:1:pos:R:3 #=T CELL(abcABC):=T 1.889726e+02=T 90.00000=T Traj:=T positionsangstrom=T Step:=T 0=T Bead:=T pbc="F F F"
C      -45.33820000     -37.40140000     -70.51260000
C      -46.27270000     -36.67010000     -71.22730000
C      -46.85770000     -35.50900000     -70.58850000
C      -46.65170000     -35.26940000     -69.24610000
C      -45.82610000     -36.11920000     -68.53270000
C      -45.10400000     -37.15120000     -69.16390000
H      -44.99360000     -38.26290000     -71.10650000
H      -47.43380000     -34.88130000     -71.24510000
H      -45.54120000     -35.95250000     -67.47000000
H      -44.46910000     -37.70380000     -68.57020000
C      -47.33160000     -34.10290000     -68.59480000
H      -47.30420000     -34.31630000     -67.50910000
H      -48.43970000     -34.05940000     -68.93050000
C      -46.54340000     -36.96890000     -72.70190000
H      -46.83070000     -38.04450000     -72.82900000
H      -47.34790000     -36.31180000     -73.12740000
S      -46.74480000     -32.40970000     -68.89550000
S      -44.97910000     -36.77320000     -73.68150000
C      -44.91850000     -32.58960000     -68.39590000
H      -44.70510000     -31.68770000     -67.85260000
H      -44.69160000     -33.38170000     -67.65830000
C      -44.84310000     -34.98260000     -73.95090000
H      -45.68660000     -34.58400000     -74.48140000
H      -44.06630000     -34.82360000     -74.66450000
C      -44.38360000     -34.18940000     -72.74480000
H      -44.98550000     -34.41280000     -71.87370000
H      -43.37950000     -34.50040000     -72.41400000
C      -43.94590000     -32.67800000     -69.59020000
H      -44.15620000     -33.61630000     -70.07720000
H      -42.91000000     -32.64930000     -69.35050000
C      -44.25820000     -31.53950000     -70.47310000
C      -44.28310000     -30.23460000     -69.96770000
C      -44.52690000     -31.70670000     -71.87840000
H      -44.31460000     -29.97840000     -68.88230000
C      -44.72670000     -30.34550000     -72.34550000
C      -44.42480000     -32.66060000     -72.92270000
C      -44.59440000     -32.07230000     -74.17870000
S      -44.85170000     -29.07640000     -71.18180000
S      -44.90290000     -30.36940000     -74.14440000
H      -44.64400000     -32.62200000     -75.06050000
