40
Properties=species:S:1:pos:R:3 #=T CELL(abcABC):=T 1.889726e+02=T 90.00000=T Traj:=T positionsangstrom=T Step:=T 0=T Bead:=T pbc="F F F"
C      -42.98730000     -32.96190000     -71.46760000
C      -42.96950000     -33.58150000     -70.22850000
C      -43.70400000     -33.09850000     -69.12960000
C      -44.58570000     -32.02440000     -69.30510000
C      -44.46340000     -31.30210000     -70.50780000
C      -43.67700000     -31.77340000     -71.54330000
H      -42.36360000     -33.27460000     -72.29720000
H      -43.80760000     -33.76300000     -68.28970000
H      -45.10160000     -30.37520000     -70.57570000
H      -43.80100000     -31.19930000     -72.48700000
C      -45.52910000     -31.63080000     -68.22710000
H      -45.37890000     -30.64510000     -67.92530000
H      -45.29680000     -32.20880000     -67.26870000
C      -42.21630000     -34.92070000     -70.02700000
H      -41.20530000     -34.75320000     -70.53580000
H      -41.98060000     -35.07490000     -68.97300000
S      -47.36090000     -31.67590000     -68.61990000
S      -43.01450000     -36.36060000     -70.84020000
C      -47.56430000     -33.41260000     -69.34150000
H      -46.52670000     -33.74060000     -69.46760000
H      -47.94970000     -34.06520000     -68.50680000
C      -44.89970000     -36.12810000     -70.32780000
H      -45.01600000     -35.12140000     -69.94860000
H      -45.11820000     -36.81550000     -69.55140000
C      -45.83740000     -36.17490000     -71.51280000
H      -45.86360000     -37.00710000     -72.16450000
H      -46.86070000     -36.13760000     -71.14770000
C      -48.29640000     -33.54200000     -70.72020000
H      -49.27000000     -32.96990000     -70.79640000
H      -48.50680000     -34.68320000     -70.95990000
C      -47.41860000     -33.00500000     -71.84600000
C      -47.67540000     -31.75130000     -72.36750000
C      -46.28760000     -33.65730000     -72.50640000
H      -48.55540000     -31.17860000     -71.94810000
C      -45.83190000     -32.77840000     -73.45700000
C      -45.60770000     -34.96880000     -72.41560000
C      -44.57760000     -34.98890000     -73.31430000
S      -46.85560000     -31.38540000     -73.78810000
S      -44.48780000     -33.53840000     -74.40390000
H      -44.01170000     -35.97600000     -73.60330000
