40
Properties=species:S:1:pos:R:3 #=T CELL(abcABC):=T 1.889726e+02=T 90.00000=T Traj:=T positionsangstrom=T Step:=T 0=T Bead:=T pbc="F F F"
C      -45.13270000     -37.34820000     -70.08180000
C      -46.11060000     -36.71750000     -70.88250000
C      -47.00830000     -35.77970000     -70.20630000
C      -46.88230000     -35.34550000     -68.89120000
C      -45.92300000     -36.11890000     -68.16040000
C      -45.07180000     -37.07830000     -68.71300000
H      -44.40960000     -37.97740000     -70.65140000
H      -47.69420000     -35.21920000     -70.79660000
H      -45.72190000     -35.88400000     -67.06720000
H      -44.32090000     -37.42460000     -68.12140000
C      -47.63180000     -34.26090000     -68.23540000
H      -47.71400000     -34.53350000     -67.19510000
H      -48.68690000     -34.28590000     -68.49230000
C      -46.32720000     -37.05160000     -72.33650000
H      -46.60760000     -38.09870000     -72.45070000
H      -47.20090000     -36.52870000     -72.67060000
S      -47.12960000     -32.61470000     -68.71020000
S      -44.85510000     -36.75910000     -73.48430000
C      -45.21360000     -32.70690000     -68.46270000
H      -44.98560000     -31.81930000     -67.84600000
H      -44.89060000     -33.60720000     -67.96660000
C      -44.93710000     -34.97860000     -74.12450000
H      -45.77470000     -34.69030000     -74.69650000
H      -44.07220000     -34.94190000     -74.77740000
C      -44.77670000     -34.00360000     -72.94930000
H      -45.58620000     -34.21770000     -72.20100000
H      -43.93400000     -34.29040000     -72.29950000
C      -44.42310000     -32.74320000     -69.86990000
H      -44.85250000     -33.58480000     -70.37090000
H      -43.42800000     -32.99970000     -69.58950000
C      -44.49100000     -31.50940000     -70.71270000
C      -44.27530000     -30.22460000     -70.22200000
C      -44.61900000     -31.56560000     -72.17950000
H      -44.10600000     -29.98900000     -69.16830000
C      -44.43480000     -30.26500000     -72.73340000
C      -44.65030000     -32.50340000     -73.22800000
C      -44.48910000     -32.02480000     -74.50210000
S      -44.36550000     -29.01770000     -71.52800000
S      -44.46480000     -30.19330000     -74.42140000
H      -44.34940000     -32.68330000     -75.34040000
