40
Properties=species:S:1:pos:R:3 #=T CELL(abcABC):=T 1.889726e+02=T 90.00000=T Traj:=T positionsangstrom=T Step:=T 0=T Bead:=T pbc="F F F"
C      -45.38330000     -37.35260000     -70.46520000
C      -46.25620000     -36.58750000     -71.31070000
C      -46.95590000     -35.54090000     -70.66850000
C      -46.72500000     -35.18340000     -69.36760000
C      -45.80980000     -35.90040000     -68.63760000
C      -45.06520000     -36.96590000     -69.19380000
H      -44.82550000     -38.20850000     -70.97400000
H      -47.74290000     -35.08360000     -71.28390000
H      -45.62320000     -35.70900000     -67.52100000
H      -44.35220000     -37.46070000     -68.50540000
C      -47.47090000     -34.14730000     -68.58250000
H      -47.54610000     -34.42560000     -67.57650000
H      -48.43510000     -34.01940000     -68.99050000
C      -46.48370000     -36.96460000     -72.79350000
H      -46.84100000     -37.96030000     -72.94440000
H      -47.25330000     -36.33230000     -73.20830000
S      -46.73090000     -32.37410000     -68.68560000
S      -44.90040000     -36.83880000     -73.68720000
C      -45.03880000     -32.62230000     -68.18320000
H      -44.92880000     -31.79570000     -67.52000000
H      -45.00280000     -33.55240000     -67.58990000
C      -44.84870000     -35.00130000     -73.83560000
H      -45.86240000     -34.61910000     -73.98340000
H      -44.26110000     -34.80340000     -74.78230000
C      -44.23500000     -34.23700000     -72.64630000
H      -44.77020000     -34.58540000     -71.76560000
H      -43.15940000     -34.34530000     -72.46710000
C      -44.08500000     -32.58960000     -69.40940000
H      -44.16490000     -33.53530000     -69.95380000
H      -43.03360000     -32.51320000     -68.99000000
C      -44.39760000     -31.48180000     -70.41260000
C      -44.49570000     -30.14530000     -70.01970000
C      -44.39010000     -31.65060000     -71.86370000
H      -44.39540000     -29.84750000     -68.98210000
C      -44.64550000     -30.38660000     -72.47630000
C      -44.48300000     -32.73500000     -72.85080000
C      -44.79230000     -32.23150000     -74.14000000
S      -44.64610000     -29.07170000     -71.37720000
S      -44.88770000     -30.52520000     -74.24490000
H      -44.95620000     -32.80230000     -75.04270000
