40
Properties=species:S:1:pos:R:3 #=T CELL(abcABC):=T 1.889726e+02=T 90.00000=T Traj:=T positionsangstrom=T Step:=T 0=T Bead:=T pbc="F F F"
C      -45.14110000     -37.13020000     -70.20600000
C      -46.11210000     -36.56510000     -71.01620000
C      -46.91800000     -35.55110000     -70.40920000
C      -46.81520000     -35.21360000     -69.07270000
C      -45.91830000     -35.90470000     -68.28700000
C      -44.98870000     -36.78620000     -68.90120000
H      -44.46610000     -37.92860000     -70.61960000
H      -47.66430000     -35.07770000     -70.99780000
H      -45.87480000     -35.82150000     -67.20240000
H      -44.41190000     -37.36830000     -68.25360000
C      -47.65010000     -34.19430000     -68.38350000
H      -47.64060000     -34.36080000     -67.25790000
H      -48.66620000     -34.09260000     -68.85610000
C      -46.36830000     -36.85600000     -72.48980000
H      -46.74270000     -37.89530000     -72.63280000
H      -47.11020000     -36.16730000     -72.98250000
S      -46.96450000     -32.46220000     -68.70250000
S      -44.77510000     -36.83580000     -73.40580000
C      -45.15090000     -32.69390000     -68.46870000
H      -44.74140000     -31.73910000     -68.07670000
H      -45.02010000     -33.55890000     -67.69860000
C      -44.93060000     -35.09910000     -73.93740000
H      -45.99100000     -34.95860000     -74.35080000
H      -44.15110000     -34.93400000     -74.71300000
C      -44.70910000     -34.12840000     -72.78380000
H      -45.56360000     -34.15400000     -72.12960000
H      -43.83400000     -34.36550000     -72.22480000
C      -44.48270000     -32.88180000     -69.80790000
H      -44.94650000     -33.66870000     -70.38940000
H      -43.38210000     -33.15820000     -69.74320000
C      -44.48240000     -31.67390000     -70.66570000
C      -44.44490000     -30.36090000     -70.17080000
C      -44.54670000     -31.67780000     -72.12440000
H      -44.35530000     -30.08760000     -69.10250000
C      -44.30940000     -30.39040000     -72.69370000
C      -44.68480000     -32.64630000     -73.17310000
C      -44.65470000     -32.07480000     -74.45410000
S      -44.49290000     -29.12860000     -71.40720000
S      -44.58760000     -30.33350000     -74.39100000
H      -44.67780000     -32.59220000     -75.41890000
