40
Properties=species:S:1:pos:R:3 #=T CELL(abcABC):=T 1.889726e+02=T 90.00000=T Traj:=T positionsangstrom=T Step:=T 0=T Bead:=T pbc="F F F"
C      -44.96890000     -37.33550000     -70.26560000
C      -46.15450000     -36.87870000     -70.88580000
C      -46.92930000     -35.90320000     -70.20870000
C      -46.55810000     -35.47210000     -68.97580000
C      -45.45790000     -35.96710000     -68.30360000
C      -44.63810000     -36.94990000     -68.98830000
H      -44.30140000     -38.00250000     -70.81670000
H      -47.71440000     -35.37620000     -70.76910000
H      -45.27210000     -35.73790000     -67.22490000
H      -43.74980000     -37.40770000     -68.45520000
C      -47.36290000     -34.40460000     -68.27900000
H      -47.05900000     -34.22370000     -67.28530000
H      -48.44350000     -34.67280000     -68.32110000
C      -46.39730000     -37.17990000     -72.32390000
H      -46.54190000     -38.24970000     -72.40310000
H      -47.22300000     -36.55370000     -72.68980000
S      -47.27230000     -32.73700000     -69.03590000
S      -45.02160000     -36.72860000     -73.51530000
C      -45.45630000     -32.20910000     -68.53780000
H      -45.43310000     -31.13290000     -68.32940000
H      -45.03980000     -32.78390000     -67.71100000
C      -45.23880000     -34.89380000     -73.59430000
H      -46.26340000     -34.59330000     -73.89000000
H      -44.58240000     -34.62940000     -74.41030000
C      -44.86990000     -34.00870000     -72.50520000
H      -45.55640000     -34.04270000     -71.64160000
H      -43.83900000     -34.25850000     -72.20590000
C      -44.44280000     -32.49750000     -69.66000000
H      -44.64760000     -33.44160000     -70.03310000
H      -43.48330000     -32.66700000     -69.19860000
C      -44.27140000     -31.39880000     -70.67610000
C      -43.94980000     -30.12680000     -70.24820000
C      -44.52350000     -31.46350000     -72.09870000
H      -43.51090000     -29.91980000     -69.27610000
C      -44.42240000     -30.20910000     -72.72010000
C      -44.81420000     -32.62640000     -72.96260000
C      -45.11020000     -32.15080000     -74.23170000
S      -43.93550000     -29.00120000     -71.62690000
S      -44.90380000     -30.40130000     -74.40850000
H      -45.45730000     -32.62360000     -75.17680000
