40
Properties=species:S:1:pos:R:3 #=T CELL(abcABC):=T 1.889726e+02=T 90.00000=T Traj:=T positionsangstrom=T Step:=T 0=T Bead:=T pbc="F F F"
C      -46.44680000     -30.65440000     -75.09620000
C      -45.55340000     -31.67710000     -74.61790000
C      -46.06610000     -32.87390000     -74.19350000
C      -47.42100000     -33.21580000     -74.17640000
C      -48.30940000     -32.14810000     -74.46120000
C      -47.82100000     -30.90850000     -74.91720000
H      -46.09500000     -29.73460000     -75.48410000
H      -45.38960000     -33.64300000     -73.92620000
H      -49.35480000     -32.35940000     -74.32670000
H      -48.55690000     -30.03920000     -75.04960000
C      -47.97470000     -34.53750000     -73.85680000
H      -47.15840000     -35.34190000     -73.72550000
H      -48.74070000     -34.96800000     -74.43950000
C      -44.10190000     -31.58420000     -74.62480000
H      -43.72780000     -32.57500000     -74.78740000
H      -43.75840000     -30.85980000     -75.40320000
S      -48.77970000     -34.40680000     -72.17970000
S      -43.16040000     -30.80260000     -73.19730000
C      -47.27370000     -34.90420000     -71.06630000
H      -47.56670000     -35.71100000     -70.43560000
H      -46.47630000     -35.25490000     -71.71270000
C      -42.73660000     -32.11320000     -72.03150000
H      -41.77810000     -31.99030000     -71.58420000
H      -42.68810000     -32.96320000     -72.68560000
C      -43.71500000     -32.20350000     -70.90030000
H      -43.83860000     -31.25950000     -70.44200000
H      -44.66980000     -32.52990000     -71.21400000
C      -46.86970000     -33.70240000     -70.16090000
H      -47.75270000     -33.30080000     -69.61370000
H      -46.50850000     -32.99170000     -70.90700000
C      -45.84060000     -34.15780000     -69.14490000
C      -46.38960000     -35.00730000     -68.20210000
C      -44.38990000     -34.02120000     -69.02960000
H      -47.45910000     -35.28310000     -68.08410000
C      -43.87700000     -34.88160000     -68.02550000
C      -43.41040000     -33.25870000     -69.81330000
C      -42.12070000     -33.62900000     -69.40070000
S      -45.15460000     -35.74240000     -67.16650000
S      -42.11500000     -34.81240000     -68.14700000
H      -41.17360000     -33.12770000     -69.71010000
