40
Properties=species:S:1:pos:R:3 #=T CELL(abcABC):=T 1.889726e+02=T 90.00000=T Traj:=T positionsangstrom=T Step:=T 0=T Bead:=T pbc="F F F"
C      -42.82970000     -33.24420000     -71.30030000
C      -42.92110000     -33.41070000     -69.93320000
C      -43.62720000     -32.46520000     -69.11830000
C      -44.20690000     -31.38110000     -69.77690000
C      -44.06610000     -31.13390000     -71.23070000
C      -43.35700000     -32.11760000     -71.94500000
H      -42.43630000     -34.00370000     -71.89850000
H      -43.54630000     -32.59770000     -68.01680000
H      -44.50860000     -30.21910000     -71.57710000
H      -43.07150000     -31.94880000     -72.98380000
C      -45.18640000     -30.49790000     -69.03310000
H      -45.01050000     -29.37900000     -69.23320000
H      -45.21440000     -30.58280000     -67.97040000
C      -42.39290000     -34.59000000     -69.29730000
H      -41.38130000     -34.91950000     -69.63200000
H      -42.40670000     -34.62650000     -68.20420000
S      -46.90800000     -30.73010000     -69.66600000
S      -43.34880000     -36.24210000     -69.82600000
C      -47.19470000     -32.52630000     -69.35700000
H      -46.20560000     -32.94700000     -69.37230000
H      -47.51150000     -32.71220000     -68.35470000
C      -45.16450000     -35.63280000     -69.60760000
H      -45.28750000     -34.52140000     -69.41170000
H      -45.37980000     -36.27470000     -68.75080000
C      -46.02500000     -36.03060000     -70.85820000
H      -45.90560000     -37.12920000     -71.01950000
H      -47.11050000     -35.90250000     -70.56660000
C      -48.14290000     -33.26540000     -70.44480000
H      -49.10070000     -32.72130000     -70.59150000
H      -48.24470000     -34.26400000     -70.03630000
C      -47.57030000     -33.31380000     -71.87010000
C      -47.95040000     -32.24570000     -72.66470000
C      -46.53310000     -34.15920000     -72.48190000
H      -48.59400000     -31.49420000     -72.37720000
C      -46.05230000     -33.60970000     -73.67030000
C      -45.74610000     -35.24650000     -72.06590000
C      -44.70140000     -35.59120000     -72.93390000
S      -46.93390000     -32.17650000     -74.12540000
S      -44.75550000     -34.47460000     -74.39230000
H      -43.95630000     -36.41600000     -72.89150000
