40
Properties=species:S:1:pos:R:3 #=T CELL(abcABC):=T 1.889726e+02=T 90.00000=T Traj:=T positionsangstrom=T Step:=T 0=T Bead:=T pbc="F F F"
C      -42.83570000     -32.96620000     -71.29890000
C      -43.21180000     -32.81110000     -69.92520000
C      -44.12110000     -31.82680000     -69.50410000
C      -44.55310000     -30.97370000     -70.48640000
C      -44.21930000     -31.10330000     -71.85080000
C      -43.29510000     -32.04800000     -72.26850000
H      -42.13380000     -33.80480000     -71.52440000
H      -44.27470000     -31.70290000     -68.47380000
H      -44.58950000     -30.30090000     -72.56050000
H      -43.10230000     -32.27990000     -73.32600000
C      -45.49380000     -29.75490000     -70.11870000
H      -45.18940000     -28.88170000     -70.67480000
H      -45.41950000     -29.46820000     -69.09160000
C      -42.62230000     -33.69410000     -68.87440000
H      -41.51890000     -33.94530000     -69.07880000
H      -42.58720000     -33.25330000     -67.93940000
S      -47.30490000     -30.10710000     -70.44610000
S      -43.46680000     -35.39640000     -68.88720000
C      -47.32070000     -31.93290000     -69.84160000
H      -46.31950000     -32.34320000     -69.58250000
H      -47.84300000     -32.07880000     -68.89500000
C      -45.25570000     -35.05080000     -68.82920000
H      -45.21830000     -34.00600000     -69.15040000
H      -45.71310000     -35.21970000     -67.80810000
C      -46.14990000     -35.85930000     -69.85990000
H      -45.99950000     -36.96690000     -69.63610000
H      -47.16810000     -35.65160000     -69.62490000
C      -47.75970000     -33.07970000     -70.85760000
H      -48.82130000     -32.90230000     -71.04580000
H      -47.71020000     -33.99080000     -70.31200000
C      -46.98720000     -33.21130000     -72.15330000
C      -46.93370000     -32.42460000     -73.26670000
C      -46.15230000     -34.42030000     -72.23810000
H      -47.48410000     -31.48470000     -73.20880000
C      -45.80220000     -34.64850000     -73.56440000
C      -45.91910000     -35.60380000     -71.38160000
C      -45.20170000     -36.55150000     -72.09070000
S      -46.09760000     -33.16280000     -74.58240000
S      -44.98030000     -36.10870000     -73.76280000
H      -44.87280000     -37.54350000     -71.70620000
