40
Properties=species:S:1:pos:R:3 #=T CELL(abcABC):=T 1.889726e+02=T 90.00000=T Traj:=T positionsangstrom=T Step:=T 0=T Bead:=T pbc="F F F"
C      -42.98530000     -32.95000000     -71.55870000
C      -43.16100000     -32.83390000     -70.11230000
C      -43.82920000     -31.70560000     -69.61470000
C      -44.41660000     -30.73000000     -70.44480000
C      -44.19900000     -30.79330000     -71.78810000
C      -43.60430000     -31.95820000     -72.35380000
H      -42.57090000     -33.87400000     -71.90470000
H      -44.02010000     -31.68330000     -68.57770000
H      -44.68640000     -30.05430000     -72.45570000
H      -43.40640000     -31.98960000     -73.42610000
C      -45.34000000     -29.71010000     -69.91140000
H      -45.23390000     -28.65750000     -70.33070000
H      -45.31720000     -29.62760000     -68.79400000
C      -42.70240000     -33.88200000     -69.22170000
H      -41.68170000     -34.17900000     -69.50120000
H      -42.66730000     -33.34420000     -68.21930000
S      -47.12990000     -30.23650000     -70.21650000
S      -43.65650000     -35.47890000     -68.90940000
C      -47.29540000     -32.01240000     -69.68600000
H      -46.32760000     -32.29580000     -69.29640000
H      -47.97520000     -31.98950000     -68.82850000
C      -45.46440000     -35.01520000     -69.06600000
H      -45.49180000     -33.99650000     -69.43340000
H      -46.00970000     -35.04950000     -68.11600000
C      -46.17440000     -36.00410000     -70.03330000
H      -46.01680000     -37.02590000     -69.70060000
H      -47.25580000     -35.84760000     -69.91080000
C      -47.88940000     -32.87840000     -70.78290000
H      -48.71560000     -32.38700000     -71.34530000
H      -48.45030000     -33.74520000     -70.36320000
C      -46.92220000     -33.26530000     -71.92900000
C      -47.11300000     -32.53700000     -73.11400000
C      -46.11470000     -34.48330000     -72.10620000
H      -47.74590000     -31.65740000     -73.08600000
C      -45.71100000     -34.53710000     -73.47510000
C      -45.72650000     -35.65380000     -71.42080000
C      -45.04360000     -36.57090000     -72.21350000
S      -46.17020000     -33.20100000     -74.46840000
S      -44.86830000     -36.04870000     -73.87910000
H      -44.86570000     -37.61730000     -71.84690000
