40
Properties=species:S:1:pos:R:3 #=T CELL(abcABC):=T 1.889726e+02=T 90.00000=T Traj:=T positionsangstrom=T Step:=T 0=T Bead:=T pbc="F F F"
C      -42.42580000     -32.63710000     -70.85990000
C      -43.17760000     -32.65240000     -69.60990000
C      -44.10110000     -31.56220000     -69.43320000
C      -44.48420000     -30.68490000     -70.45380000
C      -43.97750000     -30.95420000     -71.72160000
C      -42.85590000     -31.77580000     -71.87320000
H      -41.57240000     -33.27650000     -70.98800000
H      -44.51760000     -31.50390000     -68.46690000
H      -44.30020000     -30.45600000     -72.63920000
H      -42.30740000     -31.90200000     -72.79390000
C      -45.59900000     -29.68330000     -70.38550000
H      -45.49660000     -28.80390000     -71.09250000
H      -45.81790000     -29.33550000     -69.32850000
C      -42.98390000     -33.72100000     -68.54290000
H      -41.97310000     -34.02990000     -68.42530000
H      -43.29110000     -33.32140000     -67.57980000
S      -47.11660000     -30.41350000     -71.20670000
S      -43.80400000     -35.35490000     -68.91960000
C      -47.57690000     -31.91710000     -70.16390000
H      -46.72480000     -32.39450000     -69.62430000
H      -48.21960000     -31.64060000     -69.36560000
C      -45.55340000     -34.88280000     -68.89390000
H      -45.65260000     -33.87380000     -69.24410000
H      -46.06770000     -34.90290000     -67.86750000
C      -46.35700000     -35.78170000     -69.88980000
H      -46.45930000     -36.78030000     -69.62100000
H      -47.35410000     -35.38560000     -69.78680000
C      -48.26660000     -32.99400000     -71.05410000
H      -49.12430000     -32.51750000     -71.54280000
H      -48.64660000     -33.76880000     -70.53160000
C      -47.18220000     -33.46590000     -72.11240000
C      -47.12770000     -32.72190000     -73.26410000
C      -46.21790000     -34.55780000     -72.09070000
H      -47.69080000     -31.91130000     -73.64820000
C      -45.58620000     -34.62860000     -73.41740000
C      -45.86850000     -35.70170000     -71.28640000
C      -44.95530000     -36.53660000     -71.84160000
S      -46.08780000     -33.41710000     -74.54480000
S      -44.55000000     -36.08540000     -73.56690000
H      -44.50160000     -37.36820000     -71.35630000
