40
Properties=species:S:1:pos:R:3 #=T CELL(abcABC):=T 1.889726e+02=T 90.00000=T Traj:=T positionsangstrom=T Step:=T 0=T Bead:=T pbc="F F F"
C      -44.36100000     -32.46120000     -67.68430000
C      -44.61390000     -32.27180000     -69.04890000
C      -45.66710000     -33.03640000     -69.68820000
C      -46.37100000     -33.98580000     -68.88050000
C      -46.11570000     -34.11990000     -67.51300000
C      -45.00370000     -33.47660000     -66.98820000
H      -43.65200000     -31.83480000     -67.09050000
H      -45.80280000     -32.85750000     -70.74260000
H      -46.65300000     -34.87130000     -66.93080000
H      -44.71250000     -33.47880000     -65.91730000
C      -47.51940000     -34.77370000     -69.38240000
H      -47.92480000     -34.26360000     -70.27920000
H      -48.30460000     -34.93270000     -68.62400000
C      -43.82560000     -31.29040000     -69.88650000
H      -44.38460000     -30.99500000     -70.80360000
H      -43.60560000     -30.38770000     -69.35940000
S      -46.79330000     -36.41850000     -70.00430000
S      -42.19050000     -31.93750000     -70.36450000
C      -45.34410000     -36.00630000     -71.06620000
H      -44.90420000     -35.15040000     -70.57630000
H      -44.51180000     -36.74590000     -70.94320000
C      -42.59080000     -33.58970000     -71.07370000
H      -43.48400000     -33.95410000     -70.53170000
H      -41.79980000     -34.31370000     -70.76260000
C      -42.87990000     -33.69300000     -72.60600000
H      -41.95640000     -33.28060000     -73.11180000
H      -42.96280000     -34.76290000     -72.86340000
C      -45.67080000     -35.98960000     -72.53580000
H      -46.44900000     -36.71820000     -72.88600000
H      -44.79440000     -36.30340000     -73.03130000
C      -46.12660000     -34.64930000     -73.12470000
C      -47.45570000     -34.60360000     -73.66860000
C      -45.42510000     -33.36360000     -73.26990000
H      -48.20680000     -35.37840000     -73.88200000
C      -46.28540000     -32.34600000     -73.66060000
C      -44.03720000     -32.87300000     -73.02250000
C      -43.94320000     -31.51200000     -73.20310000
S      -47.89140000     -32.89090000     -74.09540000
S      -45.47660000     -30.76690000     -73.74870000
H      -43.00910000     -30.97550000     -73.41250000
