40
Properties=species:S:1:pos:R:3 #=T CELL(abcABC):=T 1.889726e+02=T 90.00000=T Traj:=T positionsangstrom=T Step:=T 0=T Bead:=T pbc="F F F"
C      -44.56970000     -32.55550000     -67.70520000
C      -44.87680000     -32.24390000     -69.09970000
C      -46.00410000     -32.75820000     -69.74680000
C      -46.81170000     -33.68380000     -69.03640000
C      -46.51250000     -33.97290000     -67.70800000
C      -45.42510000     -33.38300000     -66.99620000
H      -43.79550000     -31.99240000     -67.19030000
H      -46.25620000     -32.55810000     -70.77660000
H      -47.15370000     -34.73110000     -67.22280000
H      -45.35380000     -33.32810000     -65.88110000
C      -47.89790000     -34.37160000     -69.77090000
H      -48.16710000     -33.80380000     -70.64050000
H      -48.83780000     -34.45040000     -69.19300000
C      -43.94810000     -31.22720000     -69.75360000
H      -44.20970000     -30.95290000     -70.80160000
H      -43.84130000     -30.25130000     -69.13740000
S      -47.39160000     -36.14030000     -70.22500000
S      -42.26680000     -31.89700000     -69.88980000
C      -45.60080000     -36.01560000     -70.87520000
H      -45.11270000     -35.09850000     -70.42580000
H      -45.02670000     -36.85730000     -70.39250000
C      -42.44380000     -33.59540000     -70.63630000
H      -43.34490000     -34.05070000     -70.11410000
H      -41.51900000     -34.16160000     -70.42960000
C      -42.70210000     -33.77760000     -72.19900000
H      -41.72290000     -33.67550000     -72.77310000
H      -43.06530000     -34.86630000     -72.32860000
C      -45.30420000     -36.04090000     -72.39210000
H      -45.69110000     -36.96150000     -72.81620000
H      -44.21220000     -36.09020000     -72.40480000
C      -45.79160000     -34.81420000     -73.18340000
C      -47.07130000     -34.74160000     -73.76260000
C      -45.09320000     -33.55680000     -73.26780000
H      -47.84050000     -35.55230000     -73.88910000
C      -45.88170000     -32.58970000     -73.82520000
C      -43.84570000     -32.94610000     -72.81240000
C      -43.64910000     -31.60090000     -73.19520000
S      -47.45080000     -33.03620000     -74.26470000
S      -45.14210000     -31.03120000     -74.03020000
H      -42.86020000     -30.91530000     -73.08940000
