40
Properties=species:S:1:pos:R:3 #=T CELL(abcABC):=T 1.889726e+02=T 90.00000=T Traj:=T positionsangstrom=T Step:=T 0=T Bead:=T pbc="F F F"
C      -44.75910000     -32.37530000     -67.54920000
C      -45.02950000     -32.03490000     -68.90330000
C      -45.91070000     -32.79200000     -69.61130000
C      -46.68930000     -33.78840000     -69.03920000
C      -46.44240000     -34.17070000     -67.74190000
C      -45.45140000     -33.47040000     -67.00320000
H      -44.00540000     -31.87270000     -66.96830000
H      -45.92420000     -32.63800000     -70.72360000
H      -46.96090000     -34.99770000     -67.22840000
H      -45.23170000     -33.79090000     -66.04120000
C      -47.83080000     -34.46270000     -69.86360000
H      -47.91880000     -34.05180000     -70.85200000
H      -48.83890000     -34.49290000     -69.45220000
C      -44.15110000     -31.03890000     -69.61740000
H      -44.77050000     -30.67190000     -70.49480000
H      -43.97340000     -30.10520000     -68.99490000
S      -47.40950000     -36.23920000     -70.41650000
S      -42.56090000     -31.83410000     -69.93370000
C      -45.65060000     -36.19450000     -70.81280000
H      -45.20370000     -35.38730000     -70.20460000
H      -45.28760000     -37.21560000     -70.53590000
C      -42.81070000     -33.53470000     -70.52120000
H      -43.89440000     -33.82650000     -70.38950000
H      -42.20210000     -34.26780000     -69.92500000
C      -42.65380000     -33.56200000     -72.00500000
H      -41.70790000     -33.03590000     -72.28420000
H      -42.57950000     -34.62290000     -72.33650000
C      -45.10100000     -35.92020000     -72.26410000
H      -45.24630000     -36.80870000     -72.83690000
H      -43.99330000     -35.79460000     -72.19720000
C      -45.69020000     -34.69570000     -72.98780000
C      -46.83470000     -34.82910000     -73.67580000
C      -45.08930000     -33.33340000     -73.14450000
H      -47.52990000     -35.62810000     -73.76220000
C      -45.86970000     -32.52200000     -73.90010000
C      -43.77880000     -32.81610000     -72.78230000
C      -43.49170000     -31.60790000     -73.36810000
S      -47.36400000     -33.30020000     -74.38270000
S      -44.99670000     -31.00580000     -74.14140000
H      -42.52400000     -31.00570000     -73.49620000
