40
Properties=species:S:1:pos:R:3 #=T CELL(abcABC):=T 1.889726e+02=T 90.00000=T Traj:=T positionsangstrom=T Step:=T 0=T Bead:=T pbc="F F F"
C      -44.55770000     -32.50870000     -67.66910000
C      -44.74140000     -32.04860000     -68.95110000
C      -45.67490000     -32.75540000     -69.80140000
C      -46.59320000     -33.67650000     -69.19290000
C      -46.49060000     -33.96680000     -67.80570000
C      -45.41410000     -33.45670000     -67.04530000
H      -43.80570000     -31.87630000     -67.14180000
H      -45.61160000     -32.54670000     -70.87110000
H      -47.27010000     -34.60880000     -67.50410000
H      -45.18670000     -33.79960000     -66.04850000
C      -47.63380000     -34.30460000     -70.07660000
H      -47.68500000     -33.71740000     -71.03450000
H      -48.49940000     -34.17520000     -69.45230000
C      -43.69360000     -31.28860000     -69.74940000
H      -44.22810000     -30.76650000     -70.62670000
H      -43.31910000     -30.41280000     -69.17130000
S      -47.50660000     -36.09380000     -70.28590000
S      -42.10540000     -32.08960000     -70.28320000
C      -45.71120000     -36.19820000     -70.77290000
H      -45.19660000     -35.48980000     -70.11850000
H      -45.27230000     -37.11420000     -70.32430000
C      -42.57620000     -33.75770000     -70.90770000
H      -43.52250000     -34.14530000     -70.47800000
H      -41.79140000     -34.39990000     -70.52850000
C      -42.65170000     -33.80080000     -72.41940000
H      -41.64350000     -33.48220000     -72.82130000
H      -42.71810000     -34.81440000     -72.76090000
C      -45.44250000     -36.04110000     -72.30650000
H      -45.91470000     -36.90350000     -72.81820000
H      -44.44080000     -36.21410000     -72.46380000
C      -45.88100000     -34.70040000     -72.93220000
C      -47.16000000     -34.64210000     -73.38210000
C      -45.21690000     -33.45800000     -73.15260000
H      -47.84430000     -35.43580000     -73.21930000
C      -45.96970000     -32.49890000     -73.76690000
C      -43.88370000     -32.97780000     -72.88200000
C      -43.73740000     -31.63430000     -73.18450000
S      -47.64010000     -33.00850000     -73.96720000
S      -45.18880000     -30.95300000     -73.83390000
H      -42.79750000     -31.02540000     -72.98970000
