40
Properties=species:S:1:pos:R:3 #=T CELL(abcABC):=T 1.889726e+02=T 90.00000=T Traj:=T positionsangstrom=T Step:=T 0=T Bead:=T pbc="F F F"
C      -43.32820000     -32.00640000     -71.44730000
C      -43.91980000     -31.73490000     -70.21860000
C      -45.26110000     -31.20070000     -70.23280000
C      -45.85720000     -30.86990000     -71.40360000
C      -45.22000000     -31.09190000     -72.63890000
C      -43.96560000     -31.63610000     -72.67890000
H      -42.28340000     -32.38110000     -71.50520000
H      -45.72650000     -30.97660000     -69.32230000
H      -45.75120000     -30.83930000     -73.52970000
H      -43.36850000     -31.89140000     -73.57860000
C      -47.27680000     -30.28950000     -71.31240000
H      -47.28500000     -29.33130000     -71.80510000
H      -47.48290000     -30.11990000     -70.23400000
C      -43.30180000     -31.86220000     -68.91480000
H      -42.21790000     -31.53620000     -68.94700000
H      -43.80760000     -31.24640000     -68.19290000
S      -48.41660000     -31.41630000     -72.11280000
S      -43.22490000     -33.60370000     -68.41020000
C      -48.39330000     -32.65820000     -70.65830000
H      -47.68940000     -32.37930000     -69.82100000
H      -49.39200000     -32.67960000     -70.10880000
C      -44.97920000     -34.09810000     -68.42620000
H      -45.49390000     -33.28930000     -68.90330000
H      -45.32250000     -34.21720000     -67.43260000
C      -45.34010000     -35.34500000     -69.12600000
H      -45.01370000     -36.28130000     -68.70340000
H      -46.46160000     -35.45680000     -69.15940000
C      -47.97820000     -34.07500000     -71.03150000
H      -48.73890000     -34.58730000     -71.50460000
H      -47.80130000     -34.64520000     -70.01630000
C      -46.75340000     -34.25150000     -71.95860000
C      -46.91560000     -34.07880000     -73.31650000
C      -45.41840000     -34.79410000     -71.65500000
H      -47.92180000     -33.87760000     -73.72790000
C      -44.68260000     -34.94820000     -72.78670000
C      -44.81960000     -35.42000000     -70.46290000
C      -43.64290000     -35.99890000     -70.83410000
S      -45.51770000     -34.68730000     -74.30370000
S      -43.20560000     -35.78210000     -72.50150000
H      -43.08120000     -36.44130000     -70.03850000
