40
Properties=species:S:1:pos:R:3 #=T CELL(abcABC):=T 1.889726e+02=T 90.00000=T Traj:=T positionsangstrom=T Step:=T 0=T Bead:=T pbc="F F F"
C      -43.24000000     -31.51200000     -71.41690000
C      -43.96850000     -31.24720000     -70.27240000
C      -45.35660000     -31.03890000     -70.32850000
C      -46.11670000     -31.06110000     -71.50680000
C      -45.34360000     -31.24160000     -72.71360000
C      -43.96770000     -31.43950000     -72.62160000
H      -42.15180000     -31.72190000     -71.38930000
H      -45.92940000     -30.66670000     -69.47280000
H      -45.77860000     -31.08630000     -73.66380000
H      -43.35400000     -31.55460000     -73.51010000
C      -47.58120000     -30.77160000     -71.46340000
H      -47.82270000     -30.17360000     -72.33720000
H      -47.68080000     -30.07650000     -70.57980000
C      -43.31150000     -31.21710000     -68.90280000
H      -42.26590000     -31.01970000     -68.78580000
H      -43.91780000     -30.58830000     -68.16400000
S      -48.77190000     -32.17610000     -71.38280000
S      -43.12430000     -32.98510000     -68.24280000
C      -47.91200000     -33.34640000     -70.20960000
H      -46.89970000     -32.85550000     -70.11640000
H      -48.44210000     -33.49070000     -69.18630000
C      -44.78520000     -33.83990000     -68.46570000
H      -45.59400000     -33.21170000     -68.78010000
H      -45.08120000     -34.11490000     -67.40950000
C      -44.66410000     -35.03970000     -69.30730000
H      -43.84530000     -35.65590000     -68.87850000
H      -45.61560000     -35.56260000     -69.20960000
C      -47.73180000     -34.87590000     -70.68190000
H      -48.79520000     -35.24780000     -70.76410000
H      -47.27790000     -35.28680000     -69.77390000
C      -46.84540000     -35.07390000     -71.83690000
C      -47.26780000     -35.23410000     -73.15580000
C      -45.42490000     -35.03610000     -71.79430000
H      -48.29460000     -35.37950000     -73.35890000
C      -44.82850000     -35.21760000     -73.05410000
C      -44.38100000     -34.87520000     -70.80010000
C      -43.09510000     -34.67220000     -71.29040000
S      -45.97640000     -35.29410000     -74.35970000
S      -43.07820000     -34.89040000     -73.08240000
H      -42.13310000     -34.51920000     -70.86730000
