40
Properties=species:S:1:pos:R:3 #=T CELL(abcABC):=T 1.889726e+02=T 90.00000=T Traj:=T positionsangstrom=T Step:=T 0=T Bead:=T pbc="F F F"
C      -43.18430000     -31.75770000     -71.52840000
C      -43.83850000     -31.57970000     -70.25810000
C      -45.14420000     -31.16590000     -70.25380000
C      -45.85810000     -31.02380000     -71.46690000
C      -45.19570000     -31.31340000     -72.67860000
C      -43.87930000     -31.62120000     -72.74960000
H      -42.11950000     -32.08150000     -71.58300000
H      -45.62300000     -30.84070000     -69.27300000
H      -45.79990000     -31.17870000     -73.62820000
H      -43.37070000     -31.96090000     -73.59890000
C      -47.27550000     -30.40370000     -71.61220000
H      -47.29570000     -29.61870000     -72.43870000
H      -47.61270000     -29.87380000     -70.71150000
C      -43.00680000     -31.86350000     -69.03730000
H      -42.00870000     -31.60130000     -69.35090000
H      -43.21860000     -31.12930000     -68.25500000
S      -48.67910000     -31.62380000     -71.99140000
S      -43.17730000     -33.53260000     -68.28720000
C      -48.59840000     -32.95260000     -70.71020000
H      -48.37150000     -32.52470000     -69.81000000
H      -49.67630000     -33.15200000     -70.64590000
C      -44.99830000     -33.92250000     -68.29290000
H      -45.52790000     -33.14450000     -68.86340000
H      -45.44670000     -33.86470000     -67.22950000
C      -45.12610000     -35.33180000     -69.01720000
H      -44.41530000     -35.92510000     -68.40480000
H      -46.15000000     -35.66940000     -68.99540000
C      -47.89500000     -34.30890000     -70.80280000
H      -48.64370000     -35.11310000     -70.84420000
H      -47.42690000     -34.36080000     -69.73930000
C      -46.81810000     -34.47780000     -71.90640000
C      -47.05110000     -34.12620000     -73.25190000
C      -45.50920000     -34.97440000     -71.68040000
H      -47.92000000     -33.73260000     -73.83400000
C      -44.80170000     -35.06920000     -72.86290000
C      -44.70350000     -35.27840000     -70.51800000
C      -43.39390000     -35.59110000     -70.84090000
S      -45.66820000     -34.49160000     -74.33090000
S      -43.18380000     -35.70430000     -72.55340000
H      -42.52590000     -35.97390000     -70.22750000
