40
Properties=species:S:1:pos:R:3 #=T CELL(abcABC):=T 1.889726e+02=T 90.00000=T Traj:=T positionsangstrom=T Step:=T 0=T Bead:=T pbc="F F F"
C      -43.18730000     -31.72600000     -71.54290000
C      -43.78920000     -31.50170000     -70.32590000
C      -45.23090000     -31.15560000     -70.33910000
C      -45.93210000     -31.10800000     -71.54070000
C      -45.28550000     -31.50080000     -72.71370000
C      -43.93180000     -31.79140000     -72.75250000
H      -42.12630000     -31.95860000     -71.47040000
H      -45.66550000     -30.79500000     -69.45790000
H      -45.78260000     -31.55170000     -73.61120000
H      -43.39380000     -32.02350000     -73.72400000
C      -47.37460000     -30.62930000     -71.65150000
H      -47.45330000     -30.08100000     -72.60200000
H      -47.53070000     -29.85000000     -70.83870000
C      -42.97830000     -31.59970000     -69.05440000
H      -41.90330000     -31.40660000     -69.33640000
H      -43.22180000     -30.93920000     -68.24330000
S      -48.59310000     -32.00200000     -71.80990000
S      -43.01940000     -33.30550000     -68.32080000
C      -48.21790000     -33.12490000     -70.41380000
H      -47.16190000     -32.74140000     -70.03780000
H      -48.85890000     -32.87480000     -69.57340000
C      -44.79250000     -33.88170000     -68.38590000
H      -45.46780000     -33.20470000     -69.01830000
H      -45.17880000     -33.95850000     -67.35600000
C      -44.92050000     -35.30420000     -69.02380000
H      -44.34390000     -35.92460000     -68.35520000
H      -45.97160000     -35.57980000     -68.91820000
C      -48.18480000     -34.56690000     -70.84430000
H      -49.17380000     -34.72400000     -71.29990000
H      -48.05890000     -35.18240000     -70.07600000
C      -47.02140000     -34.80180000     -71.86040000
C      -47.31100000     -34.53800000     -73.16450000
C      -45.54950000     -34.92690000     -71.60420000
H      -48.30760000     -34.54130000     -73.57050000
C      -44.86620000     -34.77720000     -72.80900000
C      -44.61230000     -35.22110000     -70.49630000
C      -43.36630000     -35.43560000     -70.97530000
S      -45.83870000     -34.45970000     -74.25930000
S      -43.18840000     -35.23090000     -72.74450000
H      -42.47090000     -35.79950000     -70.49120000
