40
Properties=species:S:1:pos:R:3 #=T CELL(abcABC):=T 1.889726e+02=T 90.00000=T Traj:=T positionsangstrom=T Step:=T 0=T Bead:=T pbc="F F F"
C      -43.65380000     -31.33940000     -71.30490000
C      -44.23800000     -30.94610000     -70.08700000
C      -45.67870000     -30.84610000     -70.05080000
C      -46.42350000     -30.90640000     -71.25160000
C      -45.76700000     -31.05670000     -72.46750000
C      -44.37170000     -31.32930000     -72.48770000
H      -42.60540000     -31.53040000     -71.36230000
H      -46.23520000     -30.53330000     -69.15650000
H      -46.30320000     -30.97480000     -73.42120000
H      -43.77840000     -31.44550000     -73.38910000
C      -47.91400000     -30.93500000     -71.24200000
H      -48.36700000     -30.12150000     -71.88140000
H      -48.30220000     -30.83140000     -70.26900000
C      -43.55460000     -30.96420000     -68.76110000
H      -42.72990000     -30.15620000     -68.76930000
H      -44.13990000     -30.68310000     -67.87570000
S      -48.54300000     -32.58740000     -71.81470000
S      -42.90140000     -32.64020000     -68.43870000
C      -47.96860000     -33.54010000     -70.32260000
H      -47.11090000     -33.04560000     -69.97390000
H      -48.70250000     -33.44690000     -69.55380000
C      -44.41100000     -33.68650000     -68.57170000
H      -45.26230000     -33.04290000     -68.91350000
H      -44.53380000     -33.98390000     -67.54460000
C      -44.27090000     -34.96300000     -69.33760000
H      -43.49430000     -35.61310000     -68.94350000
H      -45.20060000     -35.51370000     -68.97590000
C      -47.60770000     -34.98750000     -70.59870000
H      -48.50990000     -35.50200000     -70.74010000
H      -47.18950000     -35.53090000     -69.70570000
C      -46.73290000     -35.17130000     -71.73790000
C      -47.23170000     -35.46080000     -72.97490000
C      -45.29710000     -34.90530000     -71.72480000
H      -48.25130000     -35.35930000     -73.24810000
C      -44.79810000     -34.96180000     -73.01720000
C      -44.13990000     -34.87440000     -70.83110000
C      -42.93190000     -35.02180000     -71.41570000
S      -45.99220000     -35.27770000     -74.27360000
S      -43.01670000     -35.14800000     -73.20850000
H      -42.05070000     -35.17210000     -70.78680000
