40
Properties=species:S:1:pos:R:3 #=T CELL(abcABC):=T 1.889726e+02=T 90.00000=T Traj:=T positionsangstrom=T Step:=T 0=T Bead:=T pbc="F F F"
C      -45.23530000     -32.59940000     -67.74630000
C      -45.49080000     -32.22920000     -69.06350000
C      -46.36190000     -32.98720000     -69.85280000
C      -47.06080000     -34.01980000     -69.30010000
C      -46.85440000     -34.38300000     -67.98270000
C      -45.92460000     -33.69830000     -67.20450000
H      -44.57990000     -32.08130000     -67.06040000
H      -46.56000000     -32.66360000     -70.84430000
H      -47.39540000     -35.22990000     -67.54650000
H      -45.78050000     -33.89760000     -66.11810000
C      -47.96270000     -34.78220000     -70.22040000
H      -48.02730000     -34.20970000     -71.21300000
H      -48.92470000     -35.11970000     -69.63700000
C      -44.67310000     -31.00190000     -69.53730000
H      -44.83100000     -30.84930000     -70.55530000
H      -44.87260000     -30.20130000     -68.97910000
S      -47.17680000     -36.44820000     -70.67130000
S      -42.84450000     -31.34570000     -69.38990000
C      -45.31990000     -36.10170000     -70.71410000
H      -45.25760000     -35.26470000     -70.02440000
H      -44.81210000     -36.91690000     -70.15620000
C      -42.58030000     -33.01160000     -70.23720000
H      -43.28700000     -33.73770000     -69.95350000
H      -41.53840000     -33.18000000     -69.88700000
C      -42.54290000     -32.91350000     -71.78400000
H      -41.72400000     -32.24130000     -72.03400000
H      -42.29750000     -33.94250000     -72.28360000
C      -44.62490000     -35.83250000     -72.02720000
H      -44.55380000     -36.78300000     -72.56550000
H      -43.66590000     -35.61790000     -71.64690000
C      -45.20020000     -34.81970000     -72.98790000
C      -46.06660000     -35.10470000     -73.99650000
C      -44.82950000     -33.39340000     -72.99670000
H      -46.28310000     -36.10750000     -74.27450000
C      -45.61130000     -32.67690000     -73.90990000
C      -43.80260000     -32.47330000     -72.50590000
C      -44.06600000     -31.09610000     -72.79260000
S      -46.58150000     -33.72710000     -74.89250000
S      -45.36300000     -30.92760000     -73.93730000
H      -43.42950000     -30.25990000     -72.59340000
