40
Properties=species:S:1:pos:R:3 #=T CELL(abcABC):=T 1.889726e+02=T 90.00000=T Traj:=T positionsangstrom=T Step:=T 0=T Bead:=T pbc="F F F"
C      -43.01820000     -33.53170000     -74.09490000
C      -44.16370000     -34.30240000     -74.20540000
C      -45.39640000     -33.72050000     -74.43730000
C      -45.52610000     -32.34160000     -74.60990000
C      -44.32600000     -31.58430000     -74.64680000
C      -43.03430000     -32.16350000     -74.39160000
H      -42.16190000     -33.98940000     -73.73000000
H      -46.29380000     -34.32170000     -74.69260000
H      -44.36750000     -30.46900000     -74.70600000
H      -42.18360000     -31.53940000     -74.18540000
C      -46.89620000     -31.73620000     -74.84510000
H      -47.67410000     -32.47140000     -75.27400000
H      -46.76920000     -30.93500000     -75.47270000
C      -44.03280000     -35.82380000     -73.96220000
H      -45.11300000     -36.15820000     -73.87500000
H      -43.63700000     -36.32020000     -74.81980000
S      -47.66660000     -31.18270000     -73.19090000
S      -42.99300000     -36.39980000     -72.49100000
C      -47.97280000     -32.79020000     -72.31230000
H      -48.78830000     -32.51750000     -71.57260000
H      -48.32290000     -33.40410000     -73.15660000
C      -43.39800000     -35.12860000     -71.15590000
H      -43.61500000     -34.16850000     -71.58590000
H      -42.43290000     -34.98690000     -70.60900000
C      -44.52530000     -35.62280000     -70.26350000
H      -45.50850000     -35.81490000     -70.84800000
H      -44.08980000     -36.51550000     -69.87500000
C      -46.76170000     -33.48550000     -71.57150000
H      -45.83440000     -33.39790000     -72.20120000
H      -47.13300000     -34.50530000     -71.53930000
C      -46.46560000     -32.87060000     -70.16540000
C      -47.10240000     -31.73970000     -69.65740000
C      -45.60900000     -33.49770000     -69.16040000
H      -47.54540000     -30.96300000     -70.30720000
C      -45.70820000     -32.83280000     -67.96240000
C      -44.78640000     -34.66420000     -69.09570000
C      -44.24790000     -34.80270000     -67.84200000
S      -46.73790000     -31.40710000     -68.01440000
S      -44.79690000     -33.64450000     -66.67300000
H      -43.81240000     -35.71000000     -67.42460000
