40
Properties=species:S:1:pos:R:3 #=T CELL(abcABC):=T 1.889726e+02=T 90.00000=T Traj:=T positionsangstrom=T Step:=T 0=T Bead:=T pbc="F F F"
C      -42.86010000     -33.55970000     -74.27070000
C      -43.97080000     -34.39180000     -74.44630000
C      -45.23590000     -33.80300000     -74.69280000
C      -45.45520000     -32.44630000     -74.64540000
C      -44.33050000     -31.61070000     -74.40350000
C      -43.02900000     -32.17450000     -74.14800000
H      -41.85250000     -33.89830000     -74.06690000
H      -46.06450000     -34.44610000     -74.63180000
H      -44.42970000     -30.53540000     -74.57890000
H      -42.15300000     -31.52500000     -74.08080000
C      -46.77380000     -31.82700000     -74.77520000
H      -47.45860000     -32.59970000     -75.22200000
H      -46.77530000     -31.03850000     -75.54910000
C      -43.92880000     -35.86270000     -74.17740000
H      -44.98000000     -36.17900000     -74.22870000
H      -43.36310000     -36.48320000     -74.87540000
S      -47.52390000     -31.28930000     -73.21350000
S      -43.12350000     -36.28220000     -72.52560000
C      -47.83910000     -32.82720000     -72.33240000
H      -48.70390000     -32.72850000     -71.65260000
H      -47.97950000     -33.61970000     -73.09270000
C      -43.58300000     -35.08990000     -71.25190000
H      -44.04380000     -34.18470000     -71.69550000
H      -42.72110000     -34.74700000     -70.64030000
C      -44.52600000     -35.64830000     -70.14300000
H      -45.45260000     -36.04420000     -70.56690000
H      -44.06510000     -36.45060000     -69.60850000
C      -46.67680000     -33.43200000     -71.52140000
H      -45.83850000     -33.36950000     -72.14840000
H      -46.79820000     -34.53120000     -71.34760000
C      -46.56930000     -32.80020000     -70.15250000
C      -47.18460000     -31.66000000     -69.61310000
C      -45.75220000     -33.48660000     -69.11390000
H      -47.83890000     -31.01440000     -70.14610000
C      -45.78900000     -32.76370000     -67.93310000
C      -44.87750000     -34.65230000     -69.07680000
C      -44.32200000     -34.81060000     -67.82430000
S      -46.78570000     -31.40120000     -67.90450000
S      -44.89600000     -33.55690000     -66.67870000
H      -43.66790000     -35.63990000     -67.54670000
