40
Properties=species:S:1:pos:R:3 #=T CELL(abcABC):=T 1.889726e+02=T 90.00000=T Traj:=T positionsangstrom=T Step:=T 0=T Bead:=T pbc="F F F"
C      -44.28890000     -31.30440000     -72.28530000
C      -44.61090000     -30.95910000     -70.96430000
C      -46.00190000     -30.91200000     -70.56610000
C      -46.99860000     -31.32550000     -71.44680000
C      -46.59260000     -31.57060000     -72.78530000
C      -45.30820000     -31.53990000     -73.21940000
H      -43.18680000     -31.28280000     -72.48010000
H      -46.27860000     -30.61580000     -69.59680000
H      -47.42210000     -31.61300000     -73.48330000
H      -45.09820000     -31.80900000     -74.20850000
C      -48.41960000     -31.34850000     -70.99540000
H      -48.93920000     -30.78920000     -71.78250000
H      -48.65900000     -30.84360000     -70.10580000
C      -43.54220000     -30.60010000     -69.96890000
H      -42.69350000     -30.14070000     -70.48260000
H      -43.74310000     -29.87800000     -69.13790000
S      -49.11500000     -33.10380000     -70.97060000
S      -42.79090000     -32.03680000     -69.05570000
C      -48.00670000     -33.88110000     -69.68790000
H      -47.22730000     -33.18220000     -69.24360000
H      -48.62100000     -34.34050000     -68.90570000
C      -44.20790000     -33.25700000     -68.71000000
H      -45.07390000     -32.82870000     -69.23320000
H      -44.53430000     -33.22940000     -67.62280000
C      -44.00490000     -34.66740000     -69.10620000
H      -43.14120000     -34.98310000     -68.57100000
H      -44.81980000     -35.23740000     -68.73240000
C      -47.26110000     -35.11750000     -70.25390000
H      -48.05900000     -35.73100000     -70.63620000
H      -46.82930000     -35.69610000     -69.41620000
C      -46.28860000     -35.09620000     -71.47870000
C      -46.86330000     -35.26680000     -72.73460000
C      -44.83150000     -34.96200000     -71.51240000
H      -47.93500000     -35.27780000     -72.93070000
C      -44.33450000     -35.21050000     -72.77840000
C      -43.77910000     -34.79450000     -70.57820000
C      -42.50340000     -34.75750000     -71.10400000
S      -45.57820000     -35.17920000     -73.96870000
S      -42.61550000     -35.09040000     -72.91140000
H      -41.60130000     -34.70300000     -70.59200000
