40
Properties=species:S:1:pos:R:3 #=T CELL(abcABC):=T 1.889726e+02=T 90.00000=T Traj:=T positionsangstrom=T Step:=T 0=T Bead:=T pbc="F F F"
C      -44.42670000     -31.59410000     -72.46320000
C      -44.75650000     -31.11460000     -71.14370000
C      -46.10700000     -31.05620000     -70.76520000
C      -47.11220000     -31.38460000     -71.72990000
C      -46.74410000     -31.82140000     -72.98970000
C      -45.43790000     -31.93370000     -73.42380000
H      -43.40090000     -31.60260000     -72.72970000
H      -46.47950000     -30.61650000     -69.78530000
H      -47.52830000     -32.14810000     -73.71840000
H      -45.04650000     -32.13020000     -74.43790000
C      -48.55550000     -31.49420000     -71.25740000
H      -49.28170000     -31.39350000     -71.99730000
H      -48.67260000     -30.69660000     -70.54580000
C      -43.64100000     -30.77680000     -70.16730000
H      -42.77740000     -30.22890000     -70.66150000
H      -44.21470000     -30.12220000     -69.45240000
S      -49.11300000     -33.09220000     -70.57520000
S      -42.80630000     -32.11220000     -69.24700000
C      -47.73600000     -33.95810000     -69.64720000
H      -46.97180000     -33.22990000     -69.58180000
H      -48.20910000     -34.19090000     -68.67100000
C      -44.18070000     -33.03540000     -68.54510000
H      -45.14390000     -32.66770000     -68.99460000
H      -44.26210000     -32.91930000     -67.41040000
C      -44.07030000     -34.56230000     -68.88090000
H      -43.24090000     -34.87170000     -68.28980000
H      -44.98010000     -35.08820000     -68.58890000
C      -47.11250000     -35.23200000     -70.24250000
H      -47.85590000     -35.93200000     -70.48400000
H      -46.49160000     -35.66010000     -69.53520000
C      -46.27940000     -35.02250000     -71.51160000
C      -46.83390000     -35.04740000     -72.76140000
C      -44.78650000     -34.97210000     -71.42840000
H      -47.82320000     -35.21990000     -73.12880000
C      -44.27980000     -34.89540000     -72.71400000
C      -43.77510000     -34.75350000     -70.38410000
C      -42.51220000     -34.72230000     -70.89610000
S      -45.46040000     -35.01960000     -74.03930000
S      -42.52860000     -34.84760000     -72.71340000
H      -41.56750000     -34.62760000     -70.45290000
