40
Properties=species:S:1:pos:R:3 #=T CELL(abcABC):=T 1.889726e+02=T 90.00000=T Traj:=T positionsangstrom=T Step:=T 0=T Bead:=T pbc="F F F"
C      -43.97560000     -37.25300000     -70.75650000
C      -45.18740000     -36.68350000     -70.34080000
C      -45.06430000     -35.59060000     -69.41990000
C      -43.75830000     -35.29740000     -68.86880000
C      -42.63500000     -35.97270000     -69.20200000
C      -42.73070000     -36.94570000     -70.26480000
H      -44.05950000     -38.06050000     -71.42660000
H      -46.00790000     -35.08310000     -69.06450000
H      -41.71110000     -35.81850000     -68.78290000
H      -41.90600000     -37.58390000     -70.55320000
C      -43.70290000     -34.22530000     -67.81960000
H      -42.78040000     -34.32660000     -67.27070000
H      -44.55500000     -34.20400000     -67.15970000
C      -46.51730000     -37.11070000     -70.94370000
H      -46.58880000     -38.16880000     -70.93810000
H      -47.33680000     -36.65440000     -70.37460000
S      -43.46350000     -32.49610000     -68.55510000
S      -46.55060000     -36.70120000     -72.80970000
C      -42.87610000     -32.79550000     -70.29440000
H      -42.32360000     -31.88680000     -70.57330000
H      -42.22940000     -33.67450000     -70.30110000
C      -47.07740000     -34.85440000     -73.01430000
H      -47.27820000     -34.43640000     -72.08770000
H      -48.03390000     -34.88750000     -73.53380000
C      -46.13390000     -33.83700000     -73.77290000
H      -45.17760000     -34.06160000     -73.32310000
H      -46.19520000     -34.10620000     -74.87540000
C      -43.99840000     -32.93670000     -71.31240000
H      -44.66700000     -33.78670000     -71.16410000
H      -43.49030000     -33.08920000     -72.23950000
C      -44.82170000     -31.68290000     -71.52360000
C      -44.76500000     -30.62290000     -70.66910000
C      -45.85750000     -31.56940000     -72.58030000
H      -43.98770000     -30.38500000     -69.98480000
C      -46.48570000     -30.35060000     -72.45700000
C      -46.49220000     -32.40520000     -73.56450000
C      -47.46410000     -31.76640000     -74.23600000
S      -45.99010000     -29.38960000     -71.12340000
S      -47.75060000     -30.13240000     -73.73060000
H      -48.15430000     -32.16630000     -75.07660000
