40
Properties=species:S:1:pos:R:3 #=T CELL(abcABC):=T 1.889726e+02=T 90.00000=T Traj:=T positionsangstrom=T Step:=T 0=T Bead:=T pbc="F F F"
C      -43.91370000     -37.14670000     -71.05980000
C      -45.12180000     -36.63280000     -70.54860000
C      -45.00160000     -35.63770000     -69.50540000
C      -43.79100000     -35.27880000     -68.97700000
C      -42.59410000     -35.93320000     -69.41060000
C      -42.70800000     -36.82270000     -70.46090000
H      -43.90110000     -37.72760000     -71.95980000
H      -45.95560000     -35.21360000     -69.22840000
H      -41.65570000     -35.63550000     -68.90490000
H      -41.79600000     -37.39860000     -70.82260000
C      -43.66610000     -34.26350000     -67.86870000
H      -42.83090000     -34.47380000     -67.20180000
H      -44.47510000     -34.33500000     -67.05690000
C      -46.49420000     -36.89620000     -71.13660000
H      -46.87050000     -37.91500000     -70.99430000
H      -47.27300000     -36.26490000     -70.59330000
S      -43.54900000     -32.54010000     -68.47420000
S      -46.60460000     -36.57450000     -73.00390000
C      -42.87500000     -32.71920000     -70.22640000
H      -42.27370000     -31.87560000     -70.58380000
H      -42.23550000     -33.60380000     -70.15800000
C      -46.89620000     -34.75460000     -72.74860000
H      -46.67550000     -34.55460000     -71.67940000
H      -47.97810000     -34.55890000     -72.90470000
C      -46.11540000     -33.89980000     -73.68370000
H      -45.04210000     -34.00550000     -73.56680000
H      -46.28500000     -34.09410000     -74.80240000
C      -43.92910000     -32.89120000     -71.31400000
H      -44.49230000     -33.82670000     -71.21200000
H      -43.38740000     -32.96920000     -72.34530000
C      -44.90770000     -31.71570000     -71.35900000
C      -44.74320000     -30.54590000     -70.67680000
C      -45.97510000     -31.65610000     -72.32120000
H      -44.07300000     -30.48090000     -69.80430000
C      -46.60250000     -30.44040000     -72.29760000
C      -46.45660000     -32.49480000     -73.41560000
C      -47.48130000     -31.97120000     -74.13450000
S      -45.97520000     -29.39120000     -71.13520000
S      -47.76980000     -30.32270000     -73.56190000
H      -47.93540000     -32.34520000     -75.06110000
