40
Properties=species:S:1:pos:R:3 #=T CELL(abcABC):=T 1.889726e+02=T 90.00000=T Traj:=T positionsangstrom=T Step:=T 0=T Bead:=T pbc="F F F"
C      -46.06030000     -31.10530000     -75.11360000
C      -45.55630000     -32.38290000     -74.78070000
C      -46.43660000     -33.39690000     -74.30750000
C      -47.77500000     -33.13510000     -74.25060000
C      -48.26160000     -31.84200000     -74.52440000
C      -47.43250000     -30.87270000     -75.00390000
H      -45.41190000     -30.36630000     -75.65460000
H      -46.06410000     -34.41090000     -74.31550000
H      -49.36230000     -31.55800000     -74.47730000
H      -47.80310000     -29.92340000     -75.41960000
C      -48.79640000     -34.19240000     -73.73790000
H      -48.44160000     -35.18820000     -74.02580000
H      -49.76490000     -34.11640000     -74.18130000
C      -44.00100000     -32.52180000     -74.77190000
H      -43.89060000     -33.53400000     -74.38010000
H      -43.60500000     -32.21500000     -75.72140000
S      -48.88610000     -33.74390000     -71.90890000
S      -43.13850000     -31.46780000     -73.56810000
C      -47.21730000     -34.33340000     -71.36700000
H      -47.20140000     -35.44840000     -71.53380000
H      -46.47050000     -33.91150000     -72.10910000
C      -42.65340000     -32.59480000     -72.15030000
H      -41.79260000     -32.19210000     -71.60900000
H      -42.39240000     -33.60160000     -72.46410000
C      -43.91560000     -32.48390000     -71.16420000
H      -44.08690000     -31.38740000     -71.06230000
H      -44.77080000     -33.02950000     -71.60530000
C      -46.99530000     -33.91500000     -69.95530000
H      -47.88370000     -34.22380000     -69.32840000
H      -47.01450000     -32.84740000     -69.89080000
C      -45.80430000     -34.43940000     -69.10400000
C      -46.07610000     -35.33600000     -68.06420000
C      -44.41680000     -33.97190000     -69.07670000
H      -46.89950000     -35.96610000     -67.95050000
C      -43.69760000     -34.64410000     -68.02940000
C      -43.55940000     -33.15120000     -69.83350000
C      -42.29710000     -33.09590000     -69.29720000
S      -44.77770000     -35.64320000     -66.98490000
S      -42.12140000     -34.10160000     -67.86400000
H      -41.37230000     -32.63660000     -69.70520000
