40
Properties=species:S:1:pos:R:3 #=T CELL(abcABC):=T 1.889726e+02=T 90.00000=T Traj:=T positionsangstrom=T Step:=T 0=T Bead:=T pbc="F F F"
C      -44.12470000     -37.50190000     -70.57700000
C      -45.23240000     -36.71380000     -70.30190000
C      -45.07630000     -35.61850000     -69.41840000
C      -43.80140000     -35.37420000     -68.81070000
C      -42.70030000     -36.17220000     -69.11950000
C      -42.84730000     -37.23160000     -69.94970000
H      -44.15380000     -38.31420000     -71.28990000
H      -45.93360000     -34.96150000     -69.15370000
H      -41.73680000     -35.97130000     -68.69770000
H      -41.97240000     -37.64640000     -70.36770000
C      -43.73920000     -34.24770000     -67.87710000
H      -42.98970000     -34.50020000     -67.03830000
H      -44.76900000     -34.28970000     -67.52190000
C      -46.60520000     -36.87510000     -71.03530000
H      -46.96330000     -37.93570000     -70.91130000
H      -47.42640000     -36.24010000     -70.72170000
S      -43.38080000     -32.51680000     -68.61850000
S      -46.44760000     -36.51880000     -72.84750000
C      -42.81200000     -32.83910000     -70.30380000
H      -42.00140000     -32.10850000     -70.54030000
H      -42.26290000     -33.78710000     -70.35850000
C      -47.13540000     -34.76200000     -72.85550000
H      -47.13030000     -34.40140000     -71.78920000
H      -48.15440000     -34.80710000     -73.29460000
C      -46.21970000     -33.86910000     -73.74240000
H      -45.16070000     -34.04020000     -73.60830000
H      -46.31310000     -33.98110000     -74.78390000
C      -43.92920000     -32.92250000     -71.37090000
H      -44.34760000     -33.94470000     -71.13170000
H      -43.50690000     -33.06040000     -72.37320000
C      -44.85380000     -31.69940000     -71.43150000
C      -44.77740000     -30.50700000     -70.70370000
C      -45.96790000     -31.63040000     -72.43290000
H      -44.08090000     -30.17600000     -70.01750000
C      -46.59240000     -30.36480000     -72.44690000
C      -46.48070000     -32.41360000     -73.52580000
C      -47.38270000     -31.76440000     -74.31780000
S      -45.87850000     -29.30320000     -71.29750000
S      -47.75860000     -30.15060000     -73.76280000
H      -48.02990000     -32.28750000     -75.11720000
