40
Properties=species:S:1:pos:R:3 #=T CELL(abcABC):=T 1.889726e+02=T 90.00000=T Traj:=T positionsangstrom=T Step:=T 0=T Bead:=T pbc="F F F"
C      -42.63080000     -33.49270000     -74.08310000
C      -43.77290000     -34.36230000     -74.14790000
C      -45.05640000     -33.92620000     -74.46390000
C      -45.24510000     -32.49580000     -74.52310000
C      -44.11530000     -31.64150000     -74.47850000
C      -42.80940000     -32.13350000     -74.29790000
H      -41.73020000     -33.99770000     -73.76460000
H      -45.86720000     -34.59160000     -74.30280000
H      -44.23950000     -30.58790000     -74.75580000
H      -41.96700000     -31.48320000     -74.24580000
C      -46.67490000     -32.01710000     -74.77860000
H      -47.39800000     -32.81350000     -75.11500000
H      -46.82050000     -31.31540000     -75.55340000
C      -43.59430000     -35.81250000     -74.01800000
H      -44.46930000     -36.40130000     -74.16890000
H      -42.86560000     -36.28020000     -74.68550000
S      -47.44540000     -31.23370000     -73.28470000
S      -42.94790000     -36.34230000     -72.40570000
C      -48.18990000     -32.71950000     -72.41500000
H      -48.93740000     -32.32860000     -71.77630000
H      -48.51860000     -33.40420000     -73.20080000
C      -43.65600000     -35.19640000     -71.12070000
H      -44.08150000     -34.46180000     -71.80990000
H      -42.76310000     -34.79960000     -70.72020000
C      -44.64400000     -35.72550000     -70.12030000
H      -45.50870000     -36.12330000     -70.70450000
H      -44.22670000     -36.56310000     -69.56190000
C      -47.08900000     -33.43130000     -71.60840000
H      -46.18960000     -33.46940000     -72.06680000
H      -47.41260000     -34.53690000     -71.48190000
C      -46.82720000     -32.85340000     -70.21300000
C      -47.36340000     -31.69990000     -69.69820000
C      -45.97130000     -33.48620000     -69.21940000
H      -48.01260000     -31.02160000     -70.24560000
C      -45.95150000     -32.80810000     -67.99170000
C      -44.96750000     -34.64020000     -69.10730000
C      -44.41930000     -34.73790000     -67.89430000
S      -46.94300000     -31.37530000     -68.01840000
S      -44.87820000     -33.43670000     -66.73840000
H      -43.54980000     -35.39160000     -67.62580000
