40
Properties=species:S:1:pos:R:3 #=T CELL(abcABC):=T 1.889726e+02=T 90.00000=T Traj:=T positionsangstrom=T Step:=T 0=T Bead:=T pbc="F F F"
C      -43.75360000     -37.15610000     -71.50330000
C      -44.95300000     -36.88190000     -70.77450000
C      -44.80960000     -36.12640000     -69.64720000
C      -43.63180000     -35.51930000     -69.17440000
C      -42.45150000     -35.71940000     -69.94980000
C      -42.47950000     -36.58280000     -71.01940000
H      -43.70580000     -37.79460000     -72.39170000
H      -45.73960000     -35.91760000     -69.06180000
H      -41.49870000     -35.49330000     -69.60520000
H      -41.61720000     -36.82600000     -71.54390000
C      -43.61300000     -34.54500000     -68.00270000
H      -42.66640000     -34.71790000     -67.39220000
H      -44.47480000     -34.49700000     -67.38670000
C      -46.29300000     -37.38470000     -71.33800000
H      -46.29970000     -38.48600000     -71.51640000
H      -47.06230000     -37.12940000     -70.55120000
S      -43.58980000     -32.77860000     -68.41010000
S      -46.66470000     -36.45600000     -72.94320000
C      -42.85420000     -32.57560000     -70.05210000
H      -42.41420000     -31.58200000     -70.01320000
H      -42.09770000     -33.32490000     -70.29340000
C      -46.80700000     -34.73970000     -72.46330000
H      -46.46660000     -34.61290000     -71.43460000
H      -47.88780000     -34.57020000     -72.46190000
C      -46.12440000     -33.82620000     -73.43460000
H      -44.99300000     -33.82180000     -73.25070000
H      -46.36350000     -34.08440000     -74.47790000
C      -43.85630000     -32.65900000     -71.21950000
H      -44.30320000     -33.67490000     -71.19380000
H      -43.28780000     -32.52980000     -72.18990000
C      -44.90120000     -31.54190000     -71.36220000
C      -44.90080000     -30.44980000     -70.50600000
C      -45.94180000     -31.47850000     -72.32140000
H      -44.11440000     -30.20320000     -69.76730000
C      -46.69110000     -30.29530000     -72.27130000
C      -46.58480000     -32.42920000     -73.19650000
C      -47.69650000     -31.93630000     -73.89910000
S      -46.10940000     -29.25380000     -70.99770000
S      -47.93980000     -30.27070000     -73.44670000
H      -48.32880000     -32.47100000     -74.54930000
