40
Properties=species:S:1:pos:R:3 #=T CELL(abcABC):=T 1.889726e+02=T 90.00000=T Traj:=T positionsangstrom=T Step:=T 0=T Bead:=T pbc="F F F"
C      -45.23200000     -31.14730000     -72.88740000
C      -45.43870000     -30.91460000     -71.57190000
C      -46.64910000     -31.44410000     -71.02240000
C      -47.51150000     -32.31060000     -71.82080000
C      -47.18680000     -32.45900000     -73.16810000
C      -46.03330000     -31.92850000     -73.72630000
H      -44.24030000     -30.87690000     -73.30990000
H      -46.91080000     -31.27190000     -69.95420000
H      -47.74180000     -33.13560000     -73.77950000
H      -45.74200000     -32.27440000     -74.69310000
C      -48.75540000     -32.90980000     -71.24450000
H      -49.47590000     -33.20140000     -72.03200000
H      -49.15830000     -32.13170000     -70.56990000
C      -44.64710000     -29.88410000     -70.85390000
H      -44.40820000     -29.05400000     -71.48970000
H      -45.11480000     -29.51830000     -69.97450000
S      -48.57670000     -34.41740000     -70.19850000
S      -42.98760000     -30.67750000     -70.34770000
C      -47.24190000     -34.06590000     -68.95750000
H      -46.80750000     -33.16120000     -69.34180000
H      -47.65490000     -33.95680000     -67.96190000
C      -43.42790000     -31.79520000     -69.01760000
H      -44.51070000     -31.56170000     -68.73910000
H      -42.86380000     -31.57120000     -68.06390000
C      -43.10090000     -33.25330000     -69.33080000
H      -42.03960000     -33.28120000     -69.33400000
H      -43.61800000     -33.78140000     -68.46310000
C      -46.13110000     -35.20140000     -69.04080000
H      -46.74720000     -36.11260000     -68.81170000
H      -45.29750000     -35.06280000     -68.45870000
C      -45.67230000     -35.43580000     -70.46560000
C      -46.27930000     -36.21150000     -71.39430000
C      -44.46510000     -34.75880000     -71.10010000
H      -47.16370000     -36.81500000     -71.23510000
C      -44.38700000     -35.06330000     -72.47100000
C      -43.41420000     -33.83230000     -70.70100000
C      -42.54340000     -33.59180000     -71.73990000
S      -45.51550000     -36.20430000     -72.96990000
S      -43.00310000     -34.32060000     -73.24200000
H      -41.64190000     -33.06830000     -71.63740000
