40
Properties=species:S:1:pos:R:3 #=T CELL(abcABC):=T 1.889726e+02=T 90.00000=T Traj:=T positionsangstrom=T Step:=T 0=T Bead:=T pbc="F F F"
C      -45.19980000     -31.07150000     -72.88280000
C      -45.51840000     -30.77180000     -71.56110000
C      -46.58240000     -31.42550000     -70.99250000
C      -47.40330000     -32.33350000     -71.69660000
C      -47.02980000     -32.65920000     -73.01720000
C      -45.92590000     -32.02630000     -73.58580000
H      -44.52800000     -30.46230000     -73.42710000
H      -46.82950000     -31.09970000     -69.99560000
H      -47.73910000     -33.17040000     -73.60800000
H      -45.66020000     -32.09970000     -74.64100000
C      -48.71480000     -32.81460000     -71.12100000
H      -49.51740000     -32.96350000     -71.89880000
H      -49.06140000     -32.02170000     -70.49360000
C      -44.59090000     -29.90680000     -70.66910000
H      -44.49240000     -28.95370000     -71.21810000
H      -44.99280000     -29.62760000     -69.67550000
S      -48.71840000     -34.40970000     -70.15580000
S      -42.96370000     -30.57590000     -70.34110000
C      -47.34980000     -34.14790000     -68.97540000
H      -47.10640000     -33.13110000     -69.02060000
H      -47.63420000     -34.16630000     -67.80630000
C      -43.51420000     -31.85330000     -69.10300000
H      -44.57780000     -31.75510000     -68.92770000
H      -43.01480000     -31.68520000     -68.21030000
C      -43.20780000     -33.27910000     -69.44130000
H      -42.14270000     -33.36290000     -69.27340000
H      -43.59890000     -34.01740000     -68.74330000
C      -46.18590000     -35.16210000     -69.12980000
H      -46.47930000     -36.15020000     -68.68230000
H      -45.48440000     -34.78510000     -68.43410000
C      -45.61190000     -35.38850000     -70.51270000
C      -46.26720000     -36.21510000     -71.38580000
C      -44.48110000     -34.74760000     -71.15750000
H      -47.15320000     -36.80710000     -71.27560000
C      -44.33870000     -35.11850000     -72.49110000
C      -43.48290000     -33.83300000     -70.85920000
C      -42.58390000     -33.47500000     -71.84520000
S      -45.50000000     -36.30620000     -72.98160000
S      -42.93040000     -34.33920000     -73.33650000
H      -41.71280000     -32.96330000     -71.74710000
