40
Properties=species:S:1:pos:R:3 #=T CELL(abcABC):=T 1.889726e+02=T 90.00000=T Traj:=T positionsangstrom=T Step:=T 0=T Bead:=T pbc="F F F"
C      -43.81040000     -36.53550000     -72.81590000
C      -44.76080000     -36.70770000     -71.80600000
C      -44.47580000     -36.10220000     -70.57680000
C      -43.28940000     -35.40110000     -70.31550000
C      -42.37190000     -35.29200000     -71.31900000
C      -42.58150000     -35.88770000     -72.54020000
H      -43.89790000     -36.96960000     -73.82320000
H      -45.12930000     -36.27130000     -69.65800000
H      -41.42820000     -34.89580000     -71.03760000
H      -41.91650000     -35.74320000     -73.46470000
C      -43.01740000     -34.94090000     -68.84620000
H      -42.05680000     -35.27900000     -68.46550000
H      -43.81880000     -35.35670000     -68.23230000
C      -46.05410000     -37.44690000     -71.98260000
H      -45.99230000     -38.51650000     -72.29320000
H      -46.63490000     -37.43070000     -71.05570000
S      -43.11380000     -33.13460000     -68.45420000
S      -46.93800000     -36.61000000     -73.33260000
C      -42.59720000     -32.19250000     -69.96960000
H      -42.38370000     -31.18780000     -69.54490000
H      -41.61810000     -32.50700000     -70.27960000
C      -47.37580000     -35.00810000     -72.61120000
H      -47.47170000     -35.14060000     -71.52150000
H      -48.32880000     -34.71230000     -73.03710000
C      -46.27570000     -33.85210000     -72.86110000
H      -45.40730000     -33.96020000     -72.23010000
H      -46.00410000     -33.85940000     -73.96020000
C      -43.58860000     -32.31700000     -71.10730000
H      -43.90880000     -33.34540000     -71.27760000
H      -43.22200000     -31.84940000     -72.00050000
C      -44.80270000     -31.42820000     -70.91470000
C      -44.72420000     -30.27460000     -70.13030000
C      -46.04040000     -31.55180000     -71.64100000
H      -43.91650000     -30.17670000     -69.42700000
C      -46.86650000     -30.46530000     -71.30510000
C      -46.78360000     -32.49770000     -72.49060000
C      -48.04870000     -32.02940000     -72.84370000
S      -46.18170000     -29.29740000     -70.21560000
S      -48.44420000     -30.49810000     -72.14050000
H      -48.75880000     -32.52570000     -73.45640000
