40
Properties=species:S:1:pos:R:3 #=T CELL(abcABC):=T 1.889726e+02=T 90.00000=T Traj:=T positionsangstrom=T Step:=T 0=T Bead:=T pbc="F F F"
C      -43.63460000     -31.01340000     -68.27730000
C      -43.74170000     -30.68950000     -69.64960000
C      -45.00830000     -30.66350000     -70.26430000
C      -46.15360000     -30.94810000     -69.53980000
C      -46.09150000     -31.25120000     -68.13140000
C      -44.82730000     -31.21100000     -67.48880000
H      -42.57230000     -31.10010000     -67.87440000
H      -45.10930000     -30.24030000     -71.28880000
H      -47.02100000     -31.30810000     -67.64070000
H      -44.73090000     -31.40900000     -66.39330000
C      -47.51230000     -30.82450000     -70.15990000
H      -47.45460000     -30.62270000     -71.27060000
H      -48.02260000     -29.92760000     -69.80240000
C      -42.36200000     -30.63890000     -70.37810000
H      -41.82810000     -29.69890000     -70.23730000
H      -41.74780000     -31.50050000     -70.07380000
S      -48.70330000     -32.17890000     -69.73620000
S      -42.40480000     -30.59360000     -72.23380000
C      -48.22120000     -33.62740000     -70.72550000
H      -48.89130000     -34.43950000     -70.31090000
H      -48.46410000     -33.53640000     -71.83290000
C      -42.92520000     -32.27840000     -72.87270000
H      -41.90830000     -32.79870000     -72.76510000
H      -42.91710000     -32.10930000     -73.99030000
C      -44.15580000     -32.99590000     -72.23790000
H      -44.02630000     -32.85800000     -71.19050000
H      -44.98710000     -32.34480000     -72.46790000
C      -46.77420000     -34.05130000     -70.54680000
H      -46.60710000     -34.31560000     -69.47170000
H      -46.01460000     -33.34420000     -70.72920000
C      -46.39020000     -35.33310000     -71.33160000
C      -47.17850000     -36.41720000     -71.32530000
C      -45.38520000     -35.37100000     -72.35290000
H      -47.99350000     -36.55430000     -70.62610000
C      -45.39740000     -36.53460000     -73.02570000
C      -44.38890000     -34.42630000     -72.78370000
C      -43.70660000     -34.92910000     -73.83500000
S      -46.67660000     -37.63600000     -72.47810000
S      -44.14510000     -36.56020000     -74.25950000
H      -42.87910000     -34.60090000     -74.44690000
