40
Properties=species:S:1:pos:R:3 #=T CELL(abcABC):=T 1.889726e+02=T 90.00000=T Traj:=T positionsangstrom=T Step:=T 0=T Bead:=T pbc="F F F"
C      -43.77690000     -36.60360000     -73.04460000
C      -44.73920000     -36.50940000     -72.02020000
C      -44.38760000     -36.13610000     -70.67990000
C      -43.07010000     -35.69980000     -70.45700000
C      -42.18450000     -35.58190000     -71.54580000
C      -42.50370000     -36.14090000     -72.75050000
H      -44.07650000     -36.95920000     -74.01830000
H      -45.27840000     -36.10540000     -70.03390000
H      -41.17510000     -35.34880000     -71.35760000
H      -41.78500000     -36.02940000     -73.56160000
C      -42.63300000     -35.16170000     -69.09680000
H      -41.49890000     -35.10290000     -69.10220000
H      -42.88130000     -35.76260000     -68.24850000
C      -46.16850000     -36.97940000     -72.20850000
H      -46.05040000     -38.05120000     -72.42540000
H      -46.74220000     -36.77460000     -71.29400000
S      -43.35830000     -33.51220000     -68.76910000
S      -47.03010000     -36.25170000     -73.79270000
C      -42.64580000     -32.61210000     -70.14470000
H      -42.34690000     -31.57210000     -69.78440000
H      -41.71060000     -33.02440000     -70.51660000
C      -47.62260000     -34.46200000     -73.38600000
H      -48.40150000     -34.50620000     -72.58950000
H      -47.96810000     -34.04360000     -74.37660000
C      -46.49030000     -33.68500000     -72.79450000
H      -46.08110000     -34.19560000     -71.94510000
H      -45.76390000     -33.67160000     -73.53960000
C      -43.67270000     -32.37100000     -71.32490000
H      -44.13370000     -33.29770000     -71.53080000
H      -42.96910000     -32.00830000     -72.09880000
C      -44.72260000     -31.43080000     -70.95010000
C      -44.45750000     -30.34980000     -70.09130000
C      -46.10310000     -31.47110000     -71.37560000
H      -43.52950000     -30.02850000     -69.73040000
C      -46.88940000     -30.44950000     -70.72000000
C      -46.91650000     -32.35640000     -72.22180000
C      -48.19820000     -31.90640000     -72.22390000
S      -45.91580000     -29.41810000     -69.77210000
S      -48.49610000     -30.39540000     -71.31730000
H      -48.96700000     -32.34180000     -72.82080000
