40
Properties=species:S:1:pos:R:3 #=T CELL(abcABC):=T 1.889726e+02=T 90.00000=T Traj:=T positionsangstrom=T Step:=T 0=T Bead:=T pbc="F F F"
C      -46.10890000     -31.03240000     -68.21700000
C      -44.77720000     -31.49340000     -68.43330000
C      -44.11180000     -31.04320000     -69.57280000
C      -44.69160000     -30.11820000     -70.44240000
C      -46.06280000     -29.76900000     -70.29160000
C      -46.74920000     -30.22450000     -69.18920000
H      -46.65020000     -31.48820000     -67.43690000
H      -43.11490000     -31.29950000     -69.71020000
H      -46.59540000     -29.14000000     -71.00680000
H      -47.75220000     -29.91600000     -68.94100000
C      -43.85070000     -29.77270000     -71.66920000
H      -42.84510000     -30.30660000     -71.63850000
H      -43.59690000     -28.69240000     -71.72400000
C      -44.17490000     -32.48900000     -67.47490000
H      -43.08700000     -32.53460000     -67.64570000
H      -44.34650000     -32.19120000     -66.45350000
S      -44.72680000     -30.12730000     -73.25890000
S      -44.97460000     -34.14590000     -67.54450000
C      -45.36120000     -31.86760000     -72.85660000
H      -46.09030000     -31.90230000     -72.02410000
H      -45.89380000     -32.23020000     -73.73780000
C      -44.78860000     -34.65950000     -69.31230000
H      -44.57960000     -35.77270000     -69.31570000
H      -43.94410000     -34.11210000     -69.74720000
C      -46.03310000     -34.22530000     -70.17920000
H      -46.98080000     -34.24390000     -69.53060000
H      -45.93240000     -33.24990000     -70.57960000
C      -44.15580000     -32.85710000     -72.57930000
H      -44.11190000     -33.09120000     -71.49670000
H      -43.23010000     -32.53640000     -72.94210000
C      -44.54520000     -34.22760000     -73.16930000
C      -44.18240000     -34.75700000     -74.35740000
C      -45.52480000     -35.13720000     -72.54510000
H      -43.39820000     -34.34000000     -74.93490000
C      -45.88800000     -36.19360000     -73.39570000
C      -46.26190000     -35.16200000     -71.32870000
C      -47.20390000     -36.09680000     -71.27570000
S      -44.95160000     -36.24860000     -74.84530000
S      -47.15110000     -37.20310000     -72.64750000
H      -47.67070000     -36.36920000     -70.39150000
