40
Properties=species:S:1:pos:R:3 #=T CELL(abcABC):=T 1.889726e+02=T 90.00000=T Traj:=T positionsangstrom=T Step:=T 0=T Bead:=T pbc="F F F"
C      -44.19510000     -36.40690000     -73.87710000
C      -45.22080000     -36.53720000     -72.97010000
C      -44.91090000     -36.41280000     -71.60310000
C      -43.62120000     -36.10250000     -71.16460000
C      -42.62890000     -36.05070000     -72.15900000
C      -42.87140000     -36.10870000     -73.53830000
H      -44.48650000     -36.47160000     -74.90860000
H      -45.60960000     -36.55600000     -70.87030000
H      -41.61790000     -35.73320000     -71.82990000
H      -42.10680000     -35.93540000     -74.20460000
C      -43.31690000     -35.90250000     -69.71820000
H      -42.25170000     -36.12750000     -69.55370000
H      -43.84980000     -36.57260000     -69.05920000
C      -46.66520000     -36.72360000     -73.38120000
H      -46.99010000     -37.59530000     -74.00000000
H      -47.25140000     -36.70200000     -72.44210000
S      -43.70260000     -34.17570000     -69.07280000
S      -47.14970000     -35.34380000     -74.48530000
C      -42.59420000     -33.18050000     -70.20330000
H      -42.07860000     -32.38980000     -69.60990000
H      -41.80310000     -33.78360000     -70.61560000
C      -47.64890000     -33.89660000     -73.35190000
H      -48.20080000     -34.31880000     -72.50140000
H      -48.30540000     -33.24950000     -73.92330000
C      -46.39260000     -33.11810000     -72.76530000
H      -45.75730000     -33.85900000     -72.33380000
H      -45.76210000     -32.79460000     -73.65630000
C      -43.33300000     -32.32300000     -71.16430000
H      -43.79460000     -32.93450000     -71.88820000
H      -42.53960000     -31.82130000     -71.72330000
C      -44.28840000     -31.35390000     -70.51310000
C      -43.88170000     -30.45210000     -69.50980000
C      -45.73570000     -31.34050000     -70.81240000
H      -42.86470000     -30.11280000     -69.31780000
C      -46.38180000     -30.46610000     -69.85050000
C      -46.64430000     -32.02880000     -71.69750000
C      -47.93360000     -31.63080000     -71.41590000
S      -45.33660000     -29.59240000     -68.84000000
S      -48.12220000     -30.41280000     -70.08410000
H      -48.75690000     -32.01520000     -72.03120000
