40
Properties=species:S:1:pos:R:3 #=T CELL(abcABC):=T 1.889726e+02=T 90.00000=T Traj:=T positionsangstrom=T Step:=T 0=T Bead:=T pbc="F F F"
C      -44.19080000     -35.92770000     -74.55850000
C      -45.11360000     -36.02980000     -73.54600000
C      -44.69990000     -36.34870000     -72.23220000
C      -43.36080000     -36.16200000     -71.87160000
C      -42.35540000     -35.86980000     -72.86400000
C      -42.78240000     -35.69130000     -74.18220000
H      -44.61150000     -35.78370000     -75.58260000
H      -45.39890000     -36.63970000     -71.43580000
H      -41.34270000     -35.58190000     -72.58060000
H      -42.09310000     -35.72720000     -75.05370000
C      -42.96660000     -36.46680000     -70.49300000
H      -41.89770000     -36.49470000     -70.39440000
H      -43.23400000     -37.48930000     -70.18870000
C      -46.60540000     -36.08970000     -73.84640000
H      -46.89490000     -36.87840000     -74.56220000
H      -47.05430000     -36.18260000     -72.90460000
S      -43.80920000     -35.32110000     -69.23080000
S      -47.16970000     -34.47120000     -74.69080000
C      -42.92480000     -33.75030000     -69.51680000
H      -42.80490000     -33.27580000     -68.50970000
H      -41.92990000     -33.99390000     -69.82250000
C      -47.53490000     -33.36830000     -73.25000000
H      -48.50820000     -33.74590000     -72.80630000
H      -47.64300000     -32.36450000     -73.65100000
C      -46.52120000     -33.21010000     -72.13570000
H      -46.34810000     -34.17270000     -71.63110000
H      -45.53140000     -32.95480000     -72.53580000
C      -43.61050000     -32.76890000     -70.53020000
H      -44.13090000     -33.36760000     -71.31860000
H      -42.79120000     -32.22980000     -71.01000000
C      -44.45150000     -31.69770000     -69.91780000
C      -43.96900000     -30.69860000     -69.15370000
C      -45.89780000     -31.50520000     -70.23580000
H      -42.91180000     -30.48290000     -68.88580000
C      -46.40020000     -30.47420000     -69.56250000
C      -46.84690000     -32.13860000     -71.13500000
C      -48.08780000     -31.52720000     -71.06710000
S      -45.21600000     -29.62310000     -68.59600000
S      -48.09520000     -30.22210000     -69.80960000
H      -48.91410000     -31.71700000     -71.73590000
