40
Properties=species:S:1:pos:R:3 #=T CELL(abcABC):=T 1.889726e+02=T 90.00000=T Traj:=T positionsangstrom=T Step:=T 0=T Bead:=T pbc="F F F"
C      -44.20500000     -36.38620000     -73.74590000
C      -45.21690000     -36.37240000     -72.74570000
C      -44.81790000     -36.33220000     -71.40720000
C      -43.50130000     -36.16240000     -71.06400000
C      -42.51280000     -36.16360000     -72.05990000
C      -42.83920000     -36.19750000     -73.42100000
H      -44.46130000     -36.46110000     -74.79750000
H      -45.65710000     -36.24130000     -70.65740000
H      -41.49070000     -36.16230000     -71.75470000
H      -42.03710000     -36.23300000     -74.18060000
C      -43.12160000     -35.89790000     -69.61240000
H      -42.02030000     -36.04270000     -69.46290000
H      -43.58740000     -36.59370000     -69.01050000
C      -46.60580000     -36.52870000     -73.16800000
H      -46.71260000     -37.35090000     -73.81790000
H      -47.26160000     -36.62690000     -72.22280000
S      -43.77900000     -34.22710000     -69.19340000
S      -47.16490000     -35.24270000     -74.37370000
C      -42.62720000     -33.10140000     -70.07630000
H      -42.24690000     -32.46260000     -69.30930000
H      -41.80800000     -33.77810000     -70.49560000
C      -47.46380000     -33.92820000     -73.16120000
H      -48.04220000     -34.32740000     -72.35730000
H      -48.09740000     -33.21540000     -73.67440000
C      -46.28050000     -33.14890000     -72.75700000
H      -45.40240000     -33.70010000     -72.31360000
H      -45.96050000     -32.61830000     -73.68740000
C      -43.25070000     -32.26130000     -71.28720000
H      -43.72750000     -32.92450000     -72.01190000
H      -42.45700000     -31.79000000     -71.81460000
C      -44.37790000     -31.37290000     -70.62950000
C      -44.04390000     -30.48200000     -69.69630000
C      -45.79740000     -31.31230000     -70.87950000
H      -43.10090000     -30.15570000     -69.25050000
C      -46.43100000     -30.44140000     -70.06160000
C      -46.68560000     -32.04830000     -71.77210000
C      -47.98320000     -31.80190000     -71.37590000
S      -45.37970000     -29.57920000     -68.99930000
S      -48.21100000     -30.51000000     -70.26200000
H      -48.83560000     -32.33460000     -71.87530000
