40
Properties=species:S:1:pos:R:3 #=T CELL(abcABC):=T 1.889726e+02=T 90.00000=T Traj:=T positionsangstrom=T Step:=T 0=T Bead:=T pbc="F F F"
C      -44.20820000     -36.36520000     -73.99240000
C      -45.26760000     -36.46220000     -73.15970000
C      -45.00710000     -36.34040000     -71.75510000
C      -43.72960000     -36.04220000     -71.27850000
C      -42.70890000     -35.87570000     -72.19590000
C      -42.91880000     -36.18260000     -73.51760000
H      -44.40880000     -36.42930000     -74.98020000
H      -45.76770000     -36.28320000     -71.00970000
H      -41.77270000     -35.64110000     -71.77940000
H      -42.19090000     -36.04760000     -74.21390000
C      -43.46400000     -35.89050000     -69.82660000
H      -42.41840000     -36.31140000     -69.55580000
H      -44.11720000     -36.41540000     -69.25140000
C      -46.63730000     -36.57030000     -73.71940000
H      -46.64610000     -37.26000000     -74.47040000
H      -47.26890000     -36.88860000     -72.81440000
S      -43.53670000     -34.20670000     -69.08670000
S      -47.25270000     -34.97580000     -74.48660000
C      -42.45090000     -33.20190000     -70.19960000
H      -41.91370000     -32.52990000     -69.52770000
H      -41.73030000     -33.85940000     -70.69690000
C      -47.48020000     -33.81800000     -73.11170000
H      -48.14790000     -34.33040000     -72.42870000
H      -48.05530000     -32.95710000     -73.57730000
C      -46.25530000     -33.28820000     -72.42380000
H      -45.67500000     -34.00450000     -71.78880000
H      -45.49550000     -32.82350000     -73.09930000
C      -43.24760000     -32.40520000     -71.15360000
H      -43.76550000     -32.99500000     -71.91620000
H      -42.61820000     -31.66320000     -71.73880000
C      -44.32710000     -31.57790000     -70.40010000
C      -43.96200000     -30.68410000     -69.46710000
C      -45.77550000     -31.53930000     -70.65950000
H      -42.97790000     -30.60100000     -69.01010000
C      -46.38170000     -30.54710000     -69.91640000
C      -46.71440000     -32.18850000     -71.48990000
C      -47.96170000     -31.69270000     -71.34980000
S      -45.29620000     -29.76030000     -68.80540000
S      -48.14260000     -30.33900000     -70.15890000
H      -48.91700000     -32.07350000     -71.79290000
