40
Properties=species:S:1:pos:R:3 #=T CELL(abcABC):=T 1.889726e+02=T 90.00000=T Traj:=T positionsangstrom=T Step:=T 0=T Bead:=T pbc="F F F"
C      -43.97550000     -36.02350000     -74.32410000
C      -45.04020000     -36.26490000     -73.45790000
C      -44.82300000     -36.36750000     -72.08820000
C      -43.57360000     -36.18490000     -71.51890000
C      -42.46310000     -36.02050000     -72.41290000
C      -42.70570000     -35.91480000     -73.77160000
H      -44.26130000     -36.03200000     -75.39150000
H      -45.68240000     -36.49130000     -71.40040000
H      -41.43990000     -35.91460000     -71.92390000
H      -41.85660000     -36.04610000     -74.50770000
C      -43.31010000     -36.22350000     -70.05270000
H      -42.31140000     -36.47830000     -69.82490000
H      -43.90560000     -37.05760000     -69.51640000
C      -46.42600000     -36.43580000     -74.02200000
H      -46.26390000     -37.07330000     -74.97810000
H      -47.19030000     -36.82470000     -73.35860000
S      -43.67610000     -34.69020000     -69.07990000
S      -47.27690000     -34.77510000     -74.48990000
C      -42.67800000     -33.45060000     -70.00640000
H      -42.01480000     -32.87780000     -69.30910000
H      -41.98460000     -33.91730000     -70.70780000
C      -47.63460000     -33.68330000     -73.11140000
H      -48.12770000     -34.26420000     -72.26990000
H      -48.28630000     -32.95260000     -73.54530000
C      -46.36560000     -32.99830000     -72.45700000
H      -45.58990000     -33.70590000     -72.15570000
H      -45.82720000     -32.40030000     -73.21830000
C      -43.51040000     -32.52230000     -70.89920000
H      -44.02350000     -33.17460000     -71.68330000
H      -42.74110000     -31.87670000     -71.41130000
C      -44.48370000     -31.60750000     -70.23230000
C      -43.96100000     -30.70850000     -69.34940000
C      -45.85330000     -31.49080000     -70.48600000
H      -42.87230000     -30.58810000     -69.33580000
C      -46.42750000     -30.56570000     -69.60570000
C      -46.78170000     -32.07480000     -71.40320000
C      -48.06800000     -31.56920000     -71.21420000
S      -45.25190000     -29.71780000     -68.63640000
S      -48.19680000     -30.30160000     -69.94780000
H      -48.94940000     -31.72460000     -71.82700000
