40
Properties=species:S:1:pos:R:3 #=T CELL(abcABC):=T 1.889726e+02=T 90.00000=T Traj:=T positionsangstrom=T Step:=T 0=T Bead:=T pbc="F F F"
C      -43.69750000     -31.65240000     -68.35090000
C      -43.42660000     -31.27430000     -69.71850000
C      -44.46690000     -30.74820000     -70.46750000
C      -45.74460000     -30.59750000     -69.92930000
C      -45.97830000     -30.93410000     -68.61310000
C      -44.96450000     -31.48870000     -67.83850000
H      -42.84050000     -31.91970000     -67.74680000
H      -44.41520000     -30.57940000     -71.51390000
H      -46.93160000     -30.81450000     -68.10740000
H      -45.17170000     -31.81010000     -66.77890000
C      -46.76480000     -29.96250000     -70.80300000
H      -46.46200000     -28.97930000     -71.15810000
H      -47.77850000     -29.81050000     -70.37830000
C      -42.05200000     -31.54570000     -70.29690000
H      -41.33260000     -30.79130000     -70.01600000
H      -41.74300000     -32.50250000     -69.87570000
S      -46.94640000     -30.84470000     -72.46650000
S      -42.07240000     -31.59140000     -72.14130000
C      -48.10210000     -32.22160000     -71.90340000
H      -49.14320000     -31.87840000     -71.53010000
H      -48.34570000     -32.81800000     -72.82640000
C      -42.49470000     -33.31960000     -72.35620000
H      -41.90830000     -33.97260000     -71.66230000
H      -42.20810000     -33.53760000     -73.38690000
C      -44.00860000     -33.53110000     -72.20050000
H      -44.25410000     -33.02280000     -71.19910000
H      -44.44120000     -32.90040000     -72.98880000
C      -47.33240000     -33.13390000     -70.86710000
H      -47.97360000     -33.23590000     -69.97990000
H      -46.44870000     -32.74230000     -70.53820000
C      -47.16220000     -34.58480000     -71.35160000
C      -48.16820000     -35.47330000     -71.16030000
C      -45.98040000     -35.20630000     -71.88260000
H      -49.16350000     -35.24150000     -70.80910000
C      -46.20320000     -36.58830000     -72.14920000
C      -44.59450000     -34.89180000     -72.20640000
C      -43.78210000     -35.93060000     -72.58540000
S      -47.77150000     -37.15110000     -71.56350000
S      -44.73430000     -37.43690000     -72.59940000
H      -42.76200000     -35.81730000     -72.84080000
