40
Properties=species:S:1:pos:R:3 #=T CELL(abcABC):=T 1.889726e+02=T 90.00000=T Traj:=T positionsangstrom=T Step:=T 0=T Bead:=T pbc="F F F"
C      -44.24060000     -35.77680000     -74.64660000
C      -45.22080000     -35.97590000     -73.64510000
C      -44.80540000     -36.15780000     -72.28550000
C      -43.44980000     -36.10000000     -72.00440000
C      -42.49380000     -36.01390000     -72.98650000
C      -42.90120000     -35.88090000     -74.34070000
H      -44.59140000     -35.56860000     -75.65460000
H      -45.43770000     -36.06270000     -71.43590000
H      -41.45610000     -35.92100000     -72.69770000
H      -42.16850000     -35.54030000     -75.07720000
C      -43.01800000     -36.38170000     -70.57710000
H      -41.90110000     -36.20580000     -70.52800000
H      -43.19520000     -37.44510000     -70.37330000
C      -46.60890000     -35.93890000     -73.94930000
H      -46.71970000     -36.64170000     -74.74920000
H      -47.39120000     -36.19240000     -73.16040000
S      -43.67140000     -35.36360000     -69.13170000
S      -47.21590000     -34.26620000     -74.62760000
C      -42.82370000     -33.71750000     -69.43490000
H      -42.73050000     -33.26800000     -68.45910000
H      -41.77890000     -33.86330000     -69.75660000
C      -47.74200000     -33.36660000     -73.11410000
H      -48.64120000     -33.84860000     -72.70160000
H      -47.91780000     -32.28970000     -73.38290000
C      -46.57640000     -33.39200000     -72.04680000
H      -46.70180000     -34.38730000     -71.54810000
H      -45.57790000     -33.37480000     -72.51720000
C      -43.43900000     -32.76050000     -70.47180000
H      -43.92730000     -33.32370000     -71.23110000
H      -42.61870000     -32.15990000     -70.93380000
C      -44.39170000     -31.76050000     -69.87720000
C      -43.92860000     -30.80220000     -69.02850000
C      -45.79110000     -31.62110000     -70.18520000
H      -42.92770000     -30.67440000     -68.55290000
C      -46.44420000     -30.47710000     -69.50310000
C      -46.76900000     -32.24940000     -71.00590000
C      -48.02510000     -31.67830000     -70.95540000
S      -45.18940000     -29.68150000     -68.53960000
S      -48.06600000     -30.20850000     -70.05770000
H      -48.87510000     -32.16920000     -71.39140000
