40
Properties=species:S:1:pos:R:3 #=T CELL(abcABC):=T 1.889726e+02=T 90.00000=T Traj:=T positionsangstrom=T Step:=T 0=T Bead:=T pbc="F F F"
C      -43.69180000     -31.65460000     -68.41810000
C      -43.36840000     -31.10590000     -69.65590000
C      -44.41710000     -30.50390000     -70.37670000
C      -45.71850000     -30.46440000     -69.86700000
C      -45.98330000     -30.98400000     -68.57740000
C      -44.97710000     -31.47280000     -67.84220000
H      -43.03650000     -32.27320000     -67.80210000
H      -44.22090000     -30.09340000     -71.31050000
H      -46.97190000     -30.84430000     -68.21300000
H      -45.19810000     -32.10520000     -66.97690000
C      -46.83630000     -29.94600000     -70.75260000
H      -46.68870000     -28.92710000     -70.97160000
H      -47.80320000     -29.99550000     -70.20470000
C      -42.05610000     -31.21240000     -70.39520000
H      -41.51010000     -30.30670000     -70.27000000
H      -41.29540000     -31.95830000     -69.98450000
S      -47.04120000     -30.79880000     -72.35450000
S      -42.14730000     -31.38200000     -72.19410000
C      -47.92870000     -32.32040000     -71.97840000
H      -48.88620000     -32.16100000     -71.59710000
H      -48.07650000     -32.86400000     -72.90100000
C      -42.80890000     -33.23750000     -72.48490000
H      -42.23210000     -33.82500000     -71.75630000
H      -42.53840000     -33.50140000     -73.50780000
C      -44.27400000     -33.47220000     -72.30750000
H      -44.54200000     -33.14860000     -71.22670000
H      -44.92280000     -32.81800000     -72.88660000
C      -47.18340000     -33.28000000     -70.91450000
H      -47.78710000     -33.16030000     -69.94050000
H      -46.16150000     -32.96570000     -70.67090000
C      -47.14770000     -34.76880000     -71.28910000
C      -48.12830000     -35.67350000     -71.08850000
C      -45.92060000     -35.35360000     -71.76670000
H      -49.07040000     -35.39430000     -70.66630000
C      -46.01010000     -36.76860000     -71.84030000
C      -44.65760000     -34.93220000     -72.26040000
C      -43.85790000     -35.95260000     -72.74160000
S      -47.67140000     -37.33940000     -71.67240000
S      -44.63450000     -37.50090000     -72.57560000
H      -42.84290000     -35.90880000     -73.09550000
