40
Properties=species:S:1:pos:R:3 #=T CELL(abcABC):=T 1.889726e+02=T 90.00000=T Traj:=T positionsangstrom=T Step:=T 0=T Bead:=T pbc="F F F"
C      -44.12790000     -35.90930000     -74.57610000
C      -45.12840000     -36.03040000     -73.59930000
C      -44.80530000     -36.23330000     -72.25120000
C      -43.43930000     -36.22920000     -71.92790000
C      -42.47130000     -35.99040000     -72.93310000
C      -42.76730000     -35.80780000     -74.23970000
H      -44.48370000     -35.74600000     -75.54910000
H      -45.55030000     -36.61190000     -71.59660000
H      -41.46710000     -35.99220000     -72.55870000
H      -41.98830000     -35.84540000     -74.94480000
C      -43.05900000     -36.45900000     -70.46520000
H      -41.99160000     -36.49720000     -70.35760000
H      -43.31730000     -37.50410000     -70.14670000
C      -46.54300000     -36.01100000     -74.10930000
H      -46.62320000     -36.73850000     -74.92080000
H      -47.24800000     -36.23050000     -73.33280000
S      -43.72350000     -35.30240000     -69.27640000
S      -47.17980000     -34.37040000     -74.71970000
C      -42.89260000     -33.71010000     -69.63030000
H      -42.78660000     -33.21780000     -68.62990000
H      -41.88880000     -33.91470000     -69.98780000
C      -47.69050000     -33.47160000     -73.19380000
H      -48.49660000     -34.00000000     -72.67760000
H      -48.16430000     -32.53160000     -73.47300000
C      -46.50240000     -33.12620000     -72.17260000
H      -46.24180000     -33.97360000     -71.52960000
H      -45.61780000     -32.94390000     -72.78890000
C      -43.58720000     -32.72110000     -70.63770000
H      -44.20980000     -33.31160000     -71.35940000
H      -42.72040000     -32.31150000     -71.17790000
C      -44.42650000     -31.66240000     -69.95690000
C      -43.97840000     -30.87420000     -69.00260000
C      -45.79250000     -31.43670000     -70.22980000
H      -43.05010000     -30.75420000     -68.54420000
C      -46.42970000     -30.54680000     -69.41540000
C      -46.81280000     -31.98120000     -71.18330000
C      -48.04980000     -31.45830000     -70.99480000
S      -45.18780000     -29.71520000     -68.47960000
S      -48.10710000     -30.24290000     -69.68200000
H      -48.91930000     -31.95210000     -71.40920000
