40
Properties=species:S:1:pos:R:3 #=T CELL(abcABC):=T 1.889726e+02=T 90.00000=T Traj:=T positionsangstrom=T Step:=T 0=T Bead:=T pbc="F F F"
C      -42.63650000     -33.81490000     -73.90350000
C      -43.78720000     -34.59210000     -74.04900000
C      -45.02670000     -33.93530000     -74.24850000
C      -45.13190000     -32.55050000     -74.41670000
C      -43.93160000     -31.81560000     -74.41320000
C      -42.69170000     -32.43430000     -74.21690000
H      -41.57250000     -34.24930000     -73.82800000
H      -45.97400000     -34.48240000     -74.38380000
H      -43.95780000     -30.72910000     -74.56520000
H      -41.78770000     -31.91190000     -74.05280000
C      -46.42920000     -31.85430000     -74.65940000
H      -47.01990000     -32.58550000     -75.19300000
H      -46.18760000     -30.92540000     -75.17520000
C      -43.75150000     -36.11530000     -73.75850000
H      -44.82310000     -36.33280000     -73.68540000
H      -43.28330000     -36.65360000     -74.57390000
S      -47.51790000     -31.32880000     -73.16090000
S      -42.81400000     -36.59950000     -72.25960000
C      -48.18630000     -33.01070000     -72.45430000
H      -49.10930000     -32.82550000     -71.93290000
H      -48.43490000     -33.68310000     -73.34870000
C      -43.20540000     -35.23210000     -71.03590000
H      -43.10450000     -34.16100000     -71.41600000
H      -42.42740000     -35.25120000     -70.30620000
C      -44.62740000     -35.40870000     -70.28870000
H      -45.37160000     -35.27780000     -71.02090000
H      -44.62390000     -36.40160000     -69.75560000
C      -47.21070000     -33.75110000     -71.56620000
H      -46.33140000     -33.75480000     -72.15190000
H      -47.50500000     -34.83360000     -71.64730000
C      -47.02660000     -33.03290000     -70.22130000
C      -47.83850000     -32.00560000     -69.75330000
C      -46.00650000     -33.36500000     -69.27810000
H      -48.67690000     -31.51330000     -70.29730000
C      -46.00780000     -32.48830000     -68.15720000
C      -44.87980000     -34.30720000     -69.21450000
C      -44.16250000     -34.17330000     -68.04370000
S      -47.35040000     -31.32580000     -68.26630000
S      -44.73050000     -32.84290000     -66.97100000
H      -43.30310000     -34.82900000     -67.71550000
