40
Properties=species:S:1:pos:R:3 #=T CELL(abcABC):=T 1.889726e+02=T 90.00000=T Traj:=T positionsangstrom=T Step:=T 0=T Bead:=T pbc="F F F"
C      -43.81910000     -35.23840000     -74.58310000
C      -44.94180000     -35.67080000     -73.80340000
C      -44.61060000     -36.13900000     -72.51500000
C      -43.25340000     -36.19200000     -72.02680000
C      -42.22280000     -35.84620000     -72.86870000
C      -42.51980000     -35.40880000     -74.17700000
H      -44.07820000     -34.81230000     -75.61750000
H      -45.34890000     -36.62110000     -71.87490000
H      -41.21390000     -35.87730000     -72.55120000
H      -41.68950000     -35.12810000     -74.84870000
C      -43.10560000     -36.40230000     -70.56620000
H      -42.03630000     -36.40700000     -70.20460000
H      -43.61210000     -37.38190000     -70.25850000
C      -46.30630000     -35.76960000     -74.35560000
H      -46.26610000     -36.11910000     -75.37200000
H      -46.98640000     -36.27080000     -73.70660000
S      -43.95860000     -35.03940000     -69.69520000
S      -46.86840000     -34.03530000     -74.83240000
C      -42.78570000     -33.68030000     -70.02600000
H      -42.15920000     -33.44620000     -69.18800000
H      -42.10480000     -34.03610000     -70.77660000
C      -47.58560000     -33.36980000     -73.24840000
H      -48.26700000     -34.07280000     -72.76840000
H      -48.17630000     -32.49050000     -73.43010000
C      -46.55780000     -33.07150000     -72.23790000
H      -46.04400000     -33.95590000     -71.90720000
H      -45.71220000     -32.51010000     -72.76860000
C      -43.45960000     -32.47390000     -70.71670000
H      -43.83120000     -32.93550000     -71.69490000
H      -42.59480000     -31.92870000     -71.06000000
C      -44.53560000     -31.79630000     -69.91510000
C      -44.11910000     -30.99470000     -68.83450000
C      -45.94930000     -31.71870000     -70.13570000
H      -43.09590000     -30.93180000     -68.48620000
C      -46.58570000     -31.03030000     -69.08270000
C      -46.99900000     -32.31060000     -71.04690000
C      -48.26600000     -31.92210000     -70.71040000
S      -45.48600000     -30.13600000     -68.05760000
S      -48.29050000     -30.75400000     -69.35850000
H      -49.15670000     -31.96510000     -71.33230000
