40
Properties=species:S:1:pos:R:3 #=T CELL(abcABC):=T 1.889726e+02=T 90.00000=T Traj:=T positionsangstrom=T Step:=T 0=T Bead:=T pbc="F F F"
C      -45.02690000     -31.79030000     -73.23570000
C      -45.01710000     -31.06340000     -72.01900000
C      -46.09470000     -31.08310000     -71.16020000
C      -47.26620000     -31.73790000     -71.56730000
C      -47.33130000     -32.49330000     -72.74600000
C      -46.16030000     -32.53700000     -73.52370000
H      -44.23030000     -31.81190000     -73.93130000
H      -46.07710000     -30.40560000     -70.27000000
H      -48.31040000     -33.00930000     -72.96750000
H      -46.19790000     -33.04400000     -74.44290000
C      -48.36390000     -31.77440000     -70.55460000
H      -49.31960000     -31.71900000     -71.16130000
H      -48.32800000     -30.86080000     -69.87900000
C      -43.91640000     -30.07670000     -71.60770000
H      -44.06330000     -29.18010000     -72.27280000
H      -44.05280000     -29.91860000     -70.51600000
S      -48.31050000     -33.35840000     -69.65430000
S      -42.23560000     -30.71340000     -71.82930000
C      -46.74480000     -33.22770000     -68.61360000
H      -46.16280000     -32.55390000     -69.29700000
H      -46.95150000     -32.83630000     -67.65330000
C      -42.01720000     -31.94560000     -70.43750000
H      -41.57530000     -31.53060000     -69.50390000
H      -41.28320000     -32.67150000     -70.77600000
C      -43.36920000     -32.79690000     -70.10680000
H      -43.30030000     -33.16180000     -69.11040000
H      -44.15400000     -32.08430000     -70.02890000
C      -45.94860000     -34.55780000     -68.49210000
H      -46.43200000     -35.35710000     -67.89160000
H      -44.96120000     -34.34000000     -68.14800000
C      -45.82980000     -35.12240000     -69.90150000
C      -46.71200000     -36.15410000     -70.25750000
C      -44.87930000     -34.76920000     -70.89980000
H      -47.43350000     -36.50340000     -69.58270000
C      -44.96110000     -35.66940000     -71.97240000
C      -43.83270000     -33.84080000     -71.18220000
C      -43.14760000     -34.09600000     -72.33860000
S      -46.26370000     -36.92960000     -71.78740000
S      -44.01980000     -35.33860000     -73.37380000
H      -42.39550000     -33.47520000     -72.80890000
