40
Properties=species:S:1:pos:R:3 #=T CELL(abcABC):=T 1.889726e+02=T 90.00000=T Traj:=T positionsangstrom=T Step:=T 0=T Bead:=T pbc="F F F"
C      -44.89890000     -34.03820000     -74.55990000
C      -43.86990000     -33.99560000     -73.60810000
C      -43.36870000     -32.74400000     -73.17740000
C      -43.73900000     -31.55950000     -73.79450000
C      -44.64790000     -31.66450000     -74.90320000
C      -45.34270000     -32.85250000     -75.20700000
H      -45.33620000     -35.05730000     -74.86500000
H      -42.61800000     -32.65130000     -72.38220000
H      -44.90670000     -30.77530000     -75.46290000
H      -46.07140000     -32.92550000     -76.01460000
C      -43.26360000     -30.23680000     -73.36110000
H      -43.92040000     -29.42970000     -73.80880000
H      -42.11960000     -29.99170000     -73.69890000
C      -43.12070000     -35.29000000     -73.28150000
H      -42.84120000     -35.63950000     -74.29340000
H      -42.21950000     -35.12300000     -72.80440000
S      -43.13600000     -30.08820000     -71.49160000
S      -44.10740000     -36.57870000     -72.42230000
C      -44.82130000     -30.64320000     -70.95100000
H      -45.28020000     -29.84260000     -70.43750000
H      -45.35240000     -31.00320000     -71.86150000
C      -43.63100000     -36.21100000     -70.67960000
H      -42.56710000     -36.09450000     -70.58840000
H      -43.92300000     -37.04810000     -70.05080000
C      -44.22720000     -34.93210000     -70.11030000
H      -43.56130000     -34.85930000     -69.24390000
H      -44.06870000     -34.05670000     -70.75970000
C      -44.74550000     -31.67470000     -69.69170000
H      -44.53940000     -31.04130000     -68.75950000
H      -43.84910000     -32.28640000     -69.65780000
C      -46.07000000     -32.25920000     -69.51530000
C      -47.19140000     -31.42620000     -69.21500000
C      -46.42060000     -33.67850000     -69.66580000
H      -47.20380000     -30.38440000     -68.85780000
C      -47.73080000     -33.95280000     -69.34660000
C      -45.68810000     -34.92270000     -69.82540000
C      -46.53290000     -36.00820000     -69.60280000
S      -48.67320000     -32.48770000     -68.94090000
S      -48.23550000     -35.58690000     -69.36550000
H      -46.24450000     -37.14250000     -69.71800000
