40
Properties=species:S:1:pos:R:3 #=T CELL(abcABC):=T 1.889726e+02=T 90.00000=T Traj:=T positionsangstrom=T Step:=T 0=T Bead:=T pbc="F F F"
C      -42.63320000     -33.79310000     -74.09390000
C      -43.80690000     -34.59790000     -74.04520000
C      -45.05240000     -33.99640000     -74.20600000
C      -45.15390000     -32.59240000     -74.33550000
C      -44.02680000     -31.80590000     -74.22920000
C      -42.74560000     -32.42200000     -74.08560000
H      -41.66020000     -34.26630000     -73.93610000
H      -45.92240000     -34.67090000     -74.12640000
H      -44.18810000     -30.74190000     -74.45930000
H      -41.83880000     -31.77900000     -74.12940000
C      -46.45270000     -31.87770000     -74.73120000
H      -47.09530000     -32.49260000     -75.37480000
H      -46.40390000     -30.93110000     -75.34070000
C      -43.76060000     -36.06330000     -73.81000000
H      -44.72010000     -36.55660000     -73.92610000
H      -43.04500000     -36.58990000     -74.49820000
S      -47.38560000     -31.46310000     -73.17620000
S      -43.08050000     -36.53790000     -72.06750000
C      -47.85160000     -33.14210000     -72.63300000
H      -48.82870000     -33.03450000     -72.21760000
H      -48.01950000     -33.80190000     -73.51430000
C      -43.31650000     -35.19010000     -70.91090000
H      -43.51900000     -34.23800000     -71.40850000
H      -42.47280000     -35.20400000     -70.20460000
C      -44.61860000     -35.46550000     -70.12740000
H      -45.50110000     -35.78990000     -70.71810000
H      -44.43830000     -36.30090000     -69.41840000
C      -47.02390000     -33.80060000     -71.61650000
H      -46.01230000     -33.89070000     -71.81340000
H      -47.41630000     -34.75990000     -71.24540000
C      -46.95460000     -32.88710000     -70.30760000
C      -47.81290000     -31.91970000     -69.86600000
C      -45.92470000     -33.26740000     -69.38420000
H      -48.52570000     -31.31000000     -70.45240000
C      -46.01690000     -32.48440000     -68.21940000
C      -44.89100000     -34.28010000     -69.27330000
C      -44.13480000     -34.05820000     -68.15730000
S      -47.40610000     -31.41850000     -68.18010000
S      -44.69520000     -32.74900000     -67.11370000
H      -43.26160000     -34.66590000     -67.88490000
