40
Properties=species:S:1:pos:R:3 #=T CELL(abcABC):=T 1.889726e+02=T 90.00000=T Traj:=T positionsangstrom=T Step:=T 0=T Bead:=T pbc="F F F"
C      -44.65560000     -34.05970000     -74.74090000
C      -43.60300000     -33.95200000     -73.81480000
C      -43.17750000     -32.66070000     -73.39970000
C      -43.84330000     -31.52770000     -73.80460000
C      -44.96200000     -31.63180000     -74.60550000
C      -45.34280000     -32.91940000     -75.06220000
H      -45.03400000     -35.04440000     -75.07930000
H      -42.39230000     -32.51490000     -72.69880000
H      -45.51020000     -30.76650000     -74.76770000
H      -46.28960000     -32.96340000     -75.63140000
C      -43.34590000     -30.13590000     -73.31990000
H      -43.85900000     -29.33370000     -73.81260000
H      -42.39650000     -30.04410000     -73.77870000
C      -42.94290000     -35.13880000     -73.17760000
H      -42.43390000     -35.70200000     -73.98220000
H      -42.29000000     -34.76440000     -72.31810000
S      -43.18100000     -30.08170000     -71.49960000
S      -43.97370000     -36.52110000     -72.42140000
C      -44.87600000     -30.64870000     -70.99970000
H      -45.63460000     -29.83470000     -70.93310000
H      -45.16820000     -31.27140000     -71.81690000
C      -43.77160000     -36.25090000     -70.59500000
H      -42.66220000     -36.33680000     -70.36200000
H      -44.25070000     -37.05220000     -70.01300000
C      -44.26760000     -34.92280000     -70.15250000
H      -43.87330000     -34.65970000     -69.16510000
H      -43.91280000     -34.16390000     -70.80950000
C      -44.75410000     -31.61770000     -69.83340000
H      -44.31510000     -31.15090000     -68.98400000
H      -44.09430000     -32.44030000     -70.09830000
C      -46.16070000     -32.26700000     -69.51260000
C      -47.29770000     -31.54610000     -69.14810000
C      -46.49000000     -33.68240000     -69.55300000
H      -47.36270000     -30.44130000     -68.91080000
C      -47.81070000     -34.03540000     -69.18460000
C      -45.76390000     -34.88720000     -69.91490000
C      -46.51320000     -35.99170000     -69.79370000
S      -48.70480000     -32.51630000     -68.97070000
S      -48.15640000     -35.69580000     -69.28350000
H      -46.27860000     -37.07680000     -70.14650000
