40
Properties=species:S:1:pos:R:3 #=T CELL(abcABC):=T 1.889726e+02=T 90.00000=T Traj:=T positionsangstrom=T Step:=T 0=T Bead:=T pbc="F F F"
C      -45.05920000     -34.09200000     -74.49210000
C      -43.81500000     -34.30320000     -73.81650000
C      -43.09890000     -33.16040000     -73.44030000
C      -43.58490000     -31.87860000     -73.72260000
C      -44.85830000     -31.69050000     -74.36440000
C      -45.55990000     -32.81280000     -74.78520000
H      -45.55690000     -35.04830000     -74.88670000
H      -42.08190000     -33.30300000     -73.06080000
H      -45.29340000     -30.68960000     -74.66780000
H      -46.46480000     -32.73120000     -75.37640000
C      -42.80970000     -30.70850000     -73.29950000
H      -43.23650000     -29.87060000     -73.57320000
H      -41.79000000     -30.79630000     -73.61820000
C      -43.31910000     -35.73260000     -73.52190000
H      -43.22590000     -36.23580000     -74.55150000
H      -42.25630000     -35.73380000     -73.21400000
S      -42.78370000     -30.38220000     -71.42370000
S      -44.54020000     -36.59130000     -72.50450000
C      -44.53260000     -30.80260000     -70.99140000
H      -45.10110000     -29.89750000     -70.82540000
H      -44.97460000     -31.33940000     -71.84910000
C      -43.76530000     -36.15390000     -70.81740000
H      -42.68220000     -35.99990000     -70.85950000
H      -43.97670000     -37.03480000     -70.10290000
C      -44.31190000     -34.87440000     -70.13860000
H      -43.90460000     -34.93660000     -69.14440000
H      -43.80970000     -34.10440000     -70.64760000
C      -44.61140000     -31.58750000     -69.70580000
H      -44.26460000     -30.99020000     -68.83970000
H      -43.86970000     -32.33070000     -69.77380000
C      -46.02170000     -32.08090000     -69.40820000
C      -47.14720000     -31.29900000     -69.09250000
C      -46.44300000     -33.42900000     -69.61730000
H      -47.15250000     -30.26750000     -68.70330000
C      -47.79110000     -33.63410000     -69.35920000
C      -45.76660000     -34.68580000     -69.92120000
C      -46.64720000     -35.73940000     -69.82610000
S      -48.63730000     -32.19500000     -68.90090000
S      -48.27240000     -35.27110000     -69.43700000
H      -46.38460000     -36.78860000     -70.21090000
