40
Properties=species:S:1:pos:R:3 #=T CELL(abcABC):=T 1.889726e+02=T 90.00000=T Traj:=T positionsangstrom=T Step:=T 0=T Bead:=T pbc="F F F"
C      -45.19410000     -34.05880000     -74.41030000
C      -43.87660000     -34.27210000     -73.85120000
C      -43.02940000     -33.15810000     -73.63900000
C      -43.52420000     -31.85210000     -73.79920000
C      -44.83550000     -31.65500000     -74.23170000
C      -45.62280000     -32.75560000     -74.54450000
H      -45.89990000     -34.95600000     -74.60690000
H      -42.07730000     -33.31920000     -73.25420000
H      -45.19130000     -30.56810000     -74.34610000
H      -46.64050000     -32.39610000     -74.81630000
C      -42.69150000     -30.71730000     -73.33590000
H      -43.14330000     -29.74500000     -73.76170000
H      -41.62370000     -30.92650000     -73.81930000
C      -43.40710000     -35.72380000     -73.67900000
H      -43.47930000     -36.36320000     -74.51850000
H      -42.45950000     -35.64210000     -73.21380000
S      -42.68100000     -30.66790000     -71.37070000
S      -44.40490000     -36.73520000     -72.47040000
C      -44.47720000     -30.78940000     -70.89950000
H      -44.96360000     -29.82090000     -71.16860000
H      -44.95510000     -31.50150000     -71.58560000
C      -43.99010000     -36.19130000     -70.80620000
H      -42.92120000     -36.29710000     -70.63570000
H      -44.45310000     -36.91290000     -70.18520000
C      -44.38530000     -34.76860000     -70.48120000
H      -43.72440000     -34.53170000     -69.60560000
H      -44.16910000     -33.97410000     -71.20880000
C      -44.60860000     -31.35630000     -69.51350000
H      -44.45680000     -30.54630000     -68.79260000
H      -43.81960000     -32.08500000     -69.42340000
C      -46.02500000     -32.03030000     -69.36130000
C      -47.10730000     -31.27110000     -68.95210000
C      -46.41900000     -33.42660000     -69.49430000
H      -46.97190000     -30.24560000     -68.66460000
C      -47.76860000     -33.55790000     -69.30900000
C      -45.83030000     -34.65080000     -70.03830000
C      -46.71270000     -35.71310000     -70.04190000
S      -48.63390000     -32.15020000     -68.85250000
S      -48.33440000     -35.20310000     -69.53870000
H      -46.46790000     -36.73630000     -70.56380000
