40
Properties=species:S:1:pos:R:3 #=T CELL(abcABC):=T 1.889726e+02=T 90.00000=T Traj:=T positionsangstrom=T Step:=T 0=T Bead:=T pbc="F F F"
C      -43.55270000     -35.17280000     -74.83480000
C      -44.23850000     -35.65330000     -73.66210000
C      -43.59250000     -35.55760000     -72.41810000
C      -42.38690000     -34.86820000     -72.24940000
C      -41.80660000     -34.26340000     -73.33920000
C      -42.40660000     -34.40710000     -74.60220000
H      -44.02160000     -35.25140000     -75.79420000
H      -44.22320000     -35.89340000     -71.52490000
H      -40.89270000     -33.62430000     -73.27200000
H      -41.96110000     -33.83460000     -75.39270000
C      -41.74470000     -34.87120000     -70.78340000
H      -40.70970000     -34.55250000     -70.63040000
H      -41.76270000     -35.89070000     -70.35720000
C      -45.64510000     -36.33370000     -73.80390000
H      -45.39180000     -37.21380000     -74.41050000
H      -46.01630000     -36.62810000     -72.81130000
S      -42.60440000     -33.82380000     -69.49620000
S      -46.95900000     -35.23700000     -74.51740000
C      -42.62540000     -32.13850000     -70.16630000
H      -42.55260000     -31.53770000     -69.19270000
H      -41.71390000     -32.03010000     -70.75920000
C      -47.65920000     -34.27610000     -73.11040000
H      -47.58020000     -34.94160000     -72.31130000
H      -48.74560000     -34.13460000     -73.19640000
C      -46.79090000     -33.08550000     -72.62800000
H      -45.74240000     -33.40130000     -72.55780000
H      -46.58870000     -32.23170000     -73.30210000
C      -43.89660000     -31.71990000     -70.81490000
H      -44.11610000     -32.33390000     -71.70510000
H      -43.85760000     -30.68750000     -71.17070000
C      -45.15430000     -31.77980000     -69.91980000
C      -45.01180000     -31.26810000     -68.57210000
C      -46.54000000     -32.01000000     -70.23310000
H      -44.03440000     -31.01560000     -68.03540000
C      -47.35030000     -31.58760000     -69.17410000
C      -47.31260000     -32.62600000     -71.29640000
C      -48.68190000     -32.73930000     -70.99880000
S      -46.57750000     -30.95940000     -67.79890000
S      -49.01620000     -31.96050000     -69.47120000
H      -49.45760000     -33.28740000     -71.48610000
