40
Properties=species:S:1:pos:R:3 #=T CELL(abcABC):=T 1.889726e+02=T 90.00000=T Traj:=T positionsangstrom=T Step:=T 0=T Bead:=T pbc="F F F"
C      -43.29380000     -34.81370000     -74.96300000
C      -44.36710000     -35.42400000     -74.30730000
C      -44.19980000     -35.84350000     -72.94020000
C      -43.01720000     -35.54400000     -72.26650000
C      -42.02290000     -34.87000000     -72.98330000
C      -42.11710000     -34.55390000     -74.31960000
H      -43.34710000     -34.52890000     -76.02040000
H      -45.04900000     -36.35520000     -72.44450000
H      -41.07880000     -34.75970000     -72.45740000
H      -41.24760000     -34.10620000     -74.87780000
C      -42.77300000     -35.67600000     -70.80550000
H      -41.71480000     -35.57240000     -70.53330000
H      -43.06690000     -36.55170000     -70.30640000
C      -45.71000000     -35.51320000     -74.99220000
H      -45.65730000     -35.70700000     -76.09680000
H      -46.33800000     -36.32160000     -74.63280000
S      -43.55440000     -34.28140000     -69.73260000
S      -46.81490000     -34.00100000     -74.91770000
C      -42.85140000     -32.81290000     -70.49270000
H      -42.01380000     -32.41880000     -69.88860000
H      -42.36130000     -33.15310000     -71.39980000
C      -47.36900000     -33.81330000     -73.17320000
H      -47.81910000     -34.76800000     -72.77080000
H      -48.27690000     -33.24780000     -73.39930000
C      -46.42760000     -33.00960000     -72.24740000
H      -45.49150000     -33.56720000     -72.01490000
H      -46.22010000     -32.06510000     -72.80820000
C      -43.84430000     -31.68230000     -70.82950000
H      -44.24980000     -31.91910000     -71.75800000
H      -43.29570000     -30.71260000     -71.02620000
C      -44.90120000     -31.54920000     -69.72150000
C      -44.68520000     -31.02880000     -68.45320000
C      -46.30780000     -31.93980000     -69.88870000
H      -43.73600000     -30.62510000     -68.09730000
C      -47.07030000     -31.72590000     -68.75690000
C      -47.01900000     -32.61240000     -70.99090000
C      -48.33900000     -32.79330000     -70.69310000
S      -46.14380000     -31.02430000     -67.41110000
S      -48.65170000     -32.32180000     -69.01580000
H      -49.12700000     -33.21200000     -71.34870000
