40
Properties=species:S:1:pos:R:3 #=T CELL(abcABC):=T 1.889726e+02=T 90.00000=T Traj:=T positionsangstrom=T Step:=T 0=T Bead:=T pbc="F F F"
C      -43.43180000     -35.06620000     -74.83140000
C      -44.26230000     -35.48160000     -73.82340000
C      -43.82360000     -35.52490000     -72.47970000
C      -42.53000000     -35.06700000     -72.22110000
C      -41.62190000     -34.75610000     -73.23620000
C      -42.08360000     -34.73650000     -74.56350000
H      -43.83340000     -35.03910000     -75.81910000
H      -44.57380000     -35.57060000     -71.65770000
H      -40.55860000     -34.59260000     -72.97370000
H      -41.43320000     -34.54730000     -75.39580000
C      -41.99690000     -35.04930000     -70.83320000
H      -41.00410000     -34.49410000     -70.88840000
H      -41.86100000     -35.97350000     -70.34450000
C      -45.61740000     -35.88180000     -74.37040000
H      -45.53290000     -36.54830000     -75.27880000
H      -46.13850000     -36.58740000     -73.70140000
S      -43.06150000     -33.95570000     -69.70310000
S      -46.81770000     -34.60570000     -74.94460000
C      -42.74280000     -32.25370000     -70.36990000
H      -42.35720000     -31.52750000     -69.56740000
H      -41.99860000     -32.36800000     -71.18000000
C      -47.58090000     -33.94180000     -73.34080000
H      -48.16760000     -34.79040000     -72.90620000
H      -48.33550000     -33.25130000     -73.70040000
C      -46.69040000     -33.29520000     -72.31130000
H      -45.94610000     -34.02300000     -72.05320000
H      -46.01840000     -32.56480000     -72.77360000
C      -44.06990000     -31.67130000     -70.91960000
H      -44.31080000     -32.10630000     -71.86650000
H      -43.81290000     -30.64670000     -71.21370000
C      -45.14290000     -31.64120000     -69.86510000
C      -44.89350000     -31.20010000     -68.55800000
C      -46.54390000     -32.00920000     -70.09990000
H      -43.92470000     -30.98720000     -68.09530000
C      -47.30630000     -31.62330000     -68.96340000
C      -47.29790000     -32.72500000     -71.05560000
C      -48.60380000     -32.83640000     -70.64820000
S      -46.37720000     -31.03020000     -67.57730000
S      -48.96280000     -32.22760000     -69.01850000
H      -49.45640000     -33.21380000     -71.15580000
