40
Properties=species:S:1:pos:R:3 #=T CELL(abcABC):=T 1.889726e+02=T 90.00000=T Traj:=T positionsangstrom=T Step:=T 0=T Bead:=T pbc="F F F"
C      -43.24510000     -34.70400000     -74.51400000
C      -43.95270000     -35.48730000     -73.57460000
C      -43.50350000     -35.64580000     -72.23090000
C      -42.45650000     -34.84910000     -71.75730000
C      -41.74480000     -34.07800000     -72.71020000
C      -42.12720000     -34.00500000     -74.05090000
H      -43.72020000     -34.61900000     -75.48180000
H      -44.00340000     -36.33980000     -71.56530000
H      -40.90900000     -33.39680000     -72.40430000
H      -41.73620000     -33.17810000     -74.58740000
C      -41.91670000     -34.98120000     -70.36790000
H      -40.91620000     -34.68630000     -70.32470000
H      -41.85580000     -36.04650000     -70.09560000
C      -45.16100000     -36.30380000     -73.96100000
H      -44.90030000     -37.11720000     -74.65620000
H      -45.61000000     -36.79200000     -73.05760000
S      -42.96240000     -34.03870000     -69.21810000
S      -46.61340000     -35.37360000     -74.75320000
C      -42.84290000     -32.30440000     -69.76490000
H      -42.75890000     -31.63750000     -68.89090000
H      -41.87450000     -32.24880000     -70.31100000
C      -47.35510000     -34.77350000     -73.12840000
H      -47.82850000     -35.63820000     -72.63010000
H      -48.22980000     -34.15460000     -73.36370000
C      -46.37840000     -33.86720000     -72.29160000
H      -45.58180000     -34.37960000     -71.79180000
H      -45.89490000     -33.11800000     -72.95520000
C      -43.95760000     -31.86750000     -70.71360000
H      -43.98850000     -32.67390000     -71.41390000
H      -43.64630000     -30.95580000     -71.28370000
C      -45.28070000     -31.49160000     -70.00930000
C      -45.32610000     -30.52350000     -68.98320000
C      -46.59160000     -32.04000000     -70.33890000
H      -44.53820000     -29.95430000     -68.63040000
C      -47.59180000     -31.47670000     -69.60630000
C      -47.18670000     -32.99220000     -71.27670000
C      -48.54910000     -33.13890000     -71.11850000
S      -46.93350000     -30.27090000     -68.49080000
S      -49.17380000     -32.16340000     -69.73960000
H      -49.28590000     -33.77600000     -71.58640000
