40
Properties=species:S:1:pos:R:3 #=T CELL(abcABC):=T 1.889726e+02=T 90.00000=T Traj:=T positionsangstrom=T Step:=T 0=T Bead:=T pbc="F F F"
C      -44.96260000     -35.01100000     -74.23800000
C      -43.79830000     -35.30130000     -73.50530000
C      -42.79800000     -34.30620000     -73.41650000
C      -42.99720000     -32.97570000     -73.86810000
C      -44.18500000     -32.76320000     -74.56720000
C      -45.18370000     -33.73670000     -74.72520000
H      -45.77750000     -35.67390000     -74.53240000
H      -41.94450000     -34.59590000     -72.88400000
H      -44.46170000     -31.74660000     -74.86750000
H      -46.05900000     -33.47310000     -75.21480000
C      -42.01110000     -31.85440000     -73.63340000
H      -41.96540000     -31.28070000     -74.56700000
H      -41.04250000     -32.21150000     -73.32810000
C      -43.64490000     -36.70580000     -72.95040000
H      -43.89690000     -37.37410000     -73.79380000
H      -42.63680000     -36.97700000     -72.70670000
S      -42.56440000     -30.65690000     -72.25100000
S      -44.89190000     -37.11640000     -71.59170000
C      -44.14900000     -31.50590000     -71.73490000
H      -44.99430000     -31.20990000     -72.34790000
H      -44.04500000     -32.64260000     -71.72840000
C      -44.49380000     -36.13910000     -70.09080000
H      -43.44620000     -36.24620000     -69.92170000
H      -45.09320000     -36.67180000     -69.29280000
C      -44.82330000     -34.65300000     -70.04920000
H      -44.34200000     -34.31000000     -69.10060000
H      -44.21410000     -34.19220000     -70.76850000
C      -44.49210000     -31.08110000     -70.29890000
H      -44.26490000     -29.99860000     -70.27820000
H      -43.79780000     -31.44500000     -69.54090000
C      -45.93060000     -31.42010000     -69.86630000
C      -46.71870000     -30.38710000     -69.53330000
C      -46.53660000     -32.75350000     -69.70460000
H      -46.52990000     -29.35910000     -69.77180000
C      -47.92550000     -32.58100000     -69.37960000
C      -46.21270000     -34.19260000     -69.88020000
C      -47.29330000     -35.01960000     -69.55870000
S      -48.37110000     -30.94370000     -69.07680000
S      -48.77960000     -34.09680000     -69.08220000
H      -47.39050000     -36.05950000     -69.56340000
