40
Properties=species:S:1:pos:R:3 #=T CELL(abcABC):=T 1.889726e+02=T 90.00000=T Traj:=T positionsangstrom=T Step:=T 0=T Bead:=T pbc="F F F"
C      -45.21320000     -35.16740000     -74.10040000
C      -44.05480000     -35.38710000     -73.37940000
C      -43.12710000     -34.33180000     -73.25610000
C      -43.29100000     -33.08840000     -73.87050000
C      -44.41950000     -32.97430000     -74.74580000
C      -45.37400000     -33.95840000     -74.82100000
H      -46.01260000     -35.81820000     -74.08530000
H      -42.22540000     -34.59790000     -72.62570000
H      -44.44520000     -31.98480000     -75.32370000
H      -46.30630000     -33.84420000     -75.47820000
C      -42.36050000     -31.88180000     -73.71720000
H      -42.63980000     -31.14450000     -74.43560000
H      -41.33280000     -32.07640000     -73.96640000
C      -43.87030000     -36.80930000     -72.83720000
H      -44.23950000     -37.56020000     -73.49800000
H      -42.79620000     -37.05530000     -72.67950000
S      -42.39640000     -31.11870000     -72.02800000
S      -44.84170000     -36.96990000     -71.18750000
C      -44.21890000     -30.81760000     -71.77050000
H      -44.54460000     -29.82280000     -72.12530000
H      -44.82400000     -31.44470000     -72.36920000
C      -44.02160000     -35.76200000     -70.05080000
H      -42.92720000     -35.83420000     -70.28010000
H      -44.01460000     -36.14280000     -69.04570000
C      -44.50510000     -34.27980000     -70.14740000
H      -43.83890000     -33.69310000     -69.52830000
H      -44.22200000     -33.98630000     -71.20660000
C      -44.48500000     -30.78880000     -70.17150000
H      -44.37440000     -29.76150000     -69.94100000
H      -43.73150000     -31.40370000     -69.68050000
C      -45.93620000     -31.27280000     -69.85590000
C      -46.95130000     -30.38610000     -69.78940000
C      -46.44810000     -32.67430000     -69.74110000
H      -46.97500000     -29.29160000     -69.89200000
C      -47.78750000     -32.65440000     -69.38110000
C      -45.95000000     -34.04740000     -69.93020000
C      -46.97780000     -35.00700000     -69.74470000
S      -48.52510000     -31.04790000     -69.31380000
S      -48.51510000     -34.21330000     -69.31030000
H      -46.95120000     -36.04500000     -69.51730000
