40
Properties=species:S:1:pos:R:3 #=T CELL(abcABC):=T 1.889726e+02=T 90.00000=T Traj:=T positionsangstrom=T Step:=T 0=T Bead:=T pbc="F F F"
C      -43.80740000     -34.76620000     -74.56550000
C      -44.25670000     -35.54360000     -73.48930000
C      -43.46780000     -35.59320000     -72.34600000
C      -42.35100000     -34.75690000     -72.15430000
C      -41.81210000     -34.08630000     -73.28050000
C      -42.60890000     -34.12380000     -74.47030000
H      -44.31850000     -34.82650000     -75.49890000
H      -43.89090000     -36.06270000     -71.49740000
H      -40.85180000     -33.59610000     -73.20960000
H      -42.16050000     -33.60820000     -75.36120000
C      -41.58240000     -34.71280000     -70.86660000
H      -40.56930000     -34.21410000     -70.80990000
H      -41.47050000     -35.72340000     -70.60450000
C      -45.45200000     -36.43090000     -73.51120000
H      -45.14000000     -37.27250000     -74.02380000
H      -45.86110000     -36.65110000     -72.51120000
S      -42.53420000     -33.90830000     -69.52480000
S      -46.86860000     -35.60660000     -74.35800000
C      -42.67030000     -32.16570000     -70.15520000
H      -42.60470000     -31.43680000     -69.38730000
H      -41.92810000     -32.06970000     -70.93880000
C      -47.62560000     -34.50880000     -73.00720000
H      -48.05690000     -35.13690000     -72.22410000
H      -48.41880000     -34.13380000     -73.59100000
C      -46.73730000     -33.42770000     -72.49530000
H      -45.74560000     -33.86650000     -72.22550000
H      -46.43520000     -32.71370000     -73.29670000
C      -43.99030000     -32.01730000     -70.89280000
H      -44.22210000     -32.88130000     -71.52490000
H      -43.97380000     -31.14020000     -71.48220000
C      -45.17680000     -31.73930000     -69.95680000
C      -45.01700000     -31.05250000     -68.80990000
C      -46.55160000     -32.02610000     -70.30980000
H      -44.16280000     -30.70520000     -68.35510000
C      -47.42400000     -31.59380000     -69.26440000
C      -47.33190000     -32.73550000     -71.32020000
C      -48.65720000     -32.71050000     -71.04950000
S      -46.59290000     -30.66970000     -68.05520000
S      -49.11850000     -31.91220000     -69.58580000
H      -49.45110000     -33.13060000     -71.62050000
