40
Properties=species:S:1:pos:R:3 #=T CELL(abcABC):=T 1.889726e+02=T 90.00000=T Traj:=T positionsangstrom=T Step:=T 0=T Bead:=T pbc="F F F"
C      -42.71270000     -33.80690000     -73.88640000
C      -43.82390000     -34.60170000     -74.12710000
C      -45.09530000     -34.01100000     -74.41490000
C      -45.11950000     -32.59500000     -74.37180000
C      -43.96750000     -31.84660000     -74.25660000
C      -42.69890000     -32.43850000     -74.07440000
H      -41.77400000     -34.29940000     -73.57810000
H      -45.98110000     -34.63930000     -74.48760000
H      -43.95830000     -30.76880000     -74.41060000
H      -41.83340000     -31.86500000     -73.88600000
C      -46.44920000     -31.98220000     -74.54270000
H      -47.05620000     -32.51690000     -75.25310000
H      -46.35900000     -31.05060000     -75.01080000
C      -43.67540000     -36.10310000     -74.07160000
H      -44.61510000     -36.64640000     -74.33090000
H      -42.83810000     -36.60380000     -74.60060000
S      -47.45080000     -31.72050000     -72.99480000
S      -43.25530000     -36.47200000     -72.22810000
C      -48.00630000     -33.44300000     -72.56530000
H      -49.01720000     -33.51370000     -72.22880000
H      -47.90160000     -34.00990000     -73.49110000
C      -43.59470000     -35.07890000     -70.94460000
H      -43.97800000     -34.10020000     -71.39230000
H      -42.63490000     -34.84960000     -70.46790000
C      -44.50040000     -35.45790000     -69.81540000
H      -45.43900000     -35.96870000     -70.05470000
H      -43.90400000     -36.16220000     -69.22750000
C      -47.06920000     -34.11070000     -71.45890000
H      -46.12150000     -34.17240000     -71.97420000
H      -47.33740000     -35.17630000     -71.19180000
C      -46.94400000     -33.27300000     -70.18240000
C      -47.86720000     -32.23830000     -69.89240000
C      -45.84360000     -33.29410000     -69.20160000
H      -48.71030000     -31.81040000     -70.38220000
C      -45.86080000     -32.23890000     -68.31140000
C      -44.82070000     -34.25170000     -68.98170000
C      -44.01450000     -33.84520000     -67.92790000
S      -47.27230000     -31.18880000     -68.61650000
S      -44.64110000     -32.37720000     -67.11280000
H      -43.10740000     -34.32110000     -67.47950000
