40
Properties=species:S:1:pos:R:3 #=T CELL(abcABC):=T 1.889726e+02=T 90.00000=T Traj:=T positionsangstrom=T Step:=T 0=T Bead:=T pbc="F F F"
C      -43.01930000     -35.05460000     -74.53990000
C      -43.89130000     -35.78230000     -73.72380000
C      -43.72340000     -35.70690000     -72.34520000
C      -42.68640000     -34.99020000     -71.74640000
C      -41.78450000     -34.32080000     -72.62690000
C      -41.93440000     -34.34370000     -74.03100000
H      -43.19710000     -35.04570000     -75.57100000
H      -44.42760000     -36.22750000     -71.69310000
H      -40.92790000     -33.72930000     -72.21220000
H      -41.14740000     -33.89720000     -74.66550000
C      -42.35990000     -34.93570000     -70.27530000
H      -41.22750000     -34.96570000     -70.20850000
H      -42.66590000     -35.91080000     -69.80160000
C      -45.11190000     -36.49550000     -74.28390000
H      -44.84650000     -36.88830000     -75.27960000
H      -45.43430000     -37.30690000     -73.63230000
S      -43.21380000     -33.58220000     -69.19630000
S      -46.41720000     -35.27220000     -74.71880000
C      -42.88170000     -32.07540000     -70.15310000
H      -42.48490000     -31.34230000     -69.43300000
H      -41.97280000     -32.29010000     -70.70110000
C      -46.97150000     -34.84360000     -73.05300000
H      -46.78410000     -35.70410000     -72.37630000
H      -48.04360000     -34.68180000     -73.15400000
C      -46.30050000     -33.53620000     -72.52610000
H      -45.31570000     -33.83840000     -72.27110000
H      -46.24320000     -32.81620000     -73.37240000
C      -44.05160000     -31.42990000     -70.85920000
H      -44.18740000     -31.91910000     -71.79720000
H      -43.72600000     -30.40170000     -71.11170000
C      -45.31990000     -31.30050000     -69.98820000
C      -45.41370000     -30.41910000     -68.89340000
C      -46.53960000     -31.99890000     -70.23800000
H      -44.55330000     -29.71840000     -68.74360000
C      -47.55920000     -31.70380000     -69.35420000
C      -47.06970000     -32.86790000     -71.35630000
C      -48.40130000     -33.12850000     -71.14600000
S      -47.03100000     -30.42720000     -68.25610000
S      -49.11320000     -32.41730000     -69.66860000
H      -48.93090000     -33.91590000     -71.67550000
