40
Properties=species:S:1:pos:R:3 #=T CELL(abcABC):=T 1.889726e+02=T 90.00000=T Traj:=T positionsangstrom=T Step:=T 0=T Bead:=T pbc="F F F"
C      -42.84730000     -36.13500000     -74.18360000
C      -43.84370000     -36.22420000     -73.18350000
C      -43.69710000     -35.63040000     -71.87750000
C      -42.56690000     -34.86490000     -71.63730000
C      -41.60760000     -34.70580000     -72.63850000
C      -41.72350000     -35.37540000     -73.88450000
H      -43.03810000     -36.57910000     -75.14760000
H      -44.50370000     -35.78790000     -71.18270000
H      -40.71600000     -34.07530000     -72.50000000
H      -40.72910000     -35.39220000     -74.40040000
C      -42.19630000     -34.39940000     -70.28550000
H      -41.20120000     -33.97890000     -70.14050000
H      -42.27800000     -35.28970000     -69.59230000
C      -45.15170000     -36.82530000     -73.69550000
H      -44.98050000     -37.57310000     -74.50110000
H      -45.75120000     -37.26690000     -72.94310000
S      -43.25060000     -33.13150000     -69.43300000
S      -46.23480000     -35.58980000     -74.48240000
C      -43.01350000     -31.61280000     -70.50890000
H      -42.56350000     -30.81780000     -69.87780000
H      -42.20340000     -31.84190000     -71.23860000
C      -47.08400000     -34.80300000     -73.01450000
H      -47.17730000     -35.64260000     -72.30380000
H      -48.10290000     -34.50820000     -73.31790000
C      -46.35740000     -33.65090000     -72.36180000
H      -45.36430000     -33.96200000     -72.13290000
H      -46.13340000     -32.89750000     -73.14170000
C      -44.28840000     -31.12830000     -71.29380000
H      -44.44510000     -31.82850000     -72.14100000
H      -44.00250000     -30.20980000     -71.80040000
C      -45.54930000     -31.00850000     -70.45180000
C      -45.59400000     -30.01020000     -69.48540000
C      -46.66140000     -31.83430000     -70.44850000
H      -44.82850000     -29.21740000     -69.20130000
C      -47.67400000     -31.37000000     -69.62540000
C      -47.09570000     -33.05130000     -71.20310000
C      -48.27960000     -33.48720000     -70.72880000
S      -47.17510000     -30.03170000     -68.65290000
S      -49.01110000     -32.48260000     -69.54520000
H      -48.86900000     -34.37170000     -70.96150000
