40
Properties=species:S:1:pos:R:3 #=T CELL(abcABC):=T 1.889726e+02=T 90.00000=T Traj:=T positionsangstrom=T Step:=T 0=T Bead:=T pbc="F F F"
C      -42.88330000     -35.18390000     -74.26200000
C      -43.81380000     -35.79020000     -73.38380000
C      -43.48720000     -35.76900000     -71.99820000
C      -42.38500000     -35.03400000     -71.50520000
C      -41.46540000     -34.50460000     -72.41820000
C      -41.72360000     -34.57540000     -73.80440000
H      -43.10070000     -35.21930000     -75.35260000
H      -44.17920000     -36.20050000     -71.36170000
H      -40.57980000     -33.93650000     -72.12930000
H      -41.09460000     -33.98740000     -74.45680000
C      -42.20000000     -34.84850000     -70.01970000
H      -41.16680000     -34.58540000     -69.79550000
H      -42.38700000     -35.82900000     -69.49150000
C      -44.93290000     -36.49000000     -73.99180000
H      -44.64280000     -37.15610000     -74.88510000
H      -45.39360000     -37.19150000     -73.30350000
S      -43.48080000     -33.59960000     -69.55090000
S      -46.24500000     -35.32250000     -74.65710000
C      -43.14530000     -32.01750000     -70.44250000
H      -42.88710000     -31.25590000     -69.64550000
H      -42.23110000     -32.14260000     -71.08020000
C      -47.20910000     -34.81410000     -73.11690000
H      -47.17400000     -35.70450000     -72.44780000
H      -48.23580000     -34.53050000     -73.33530000
C      -46.57460000     -33.56510000     -72.47540000
H      -45.48630000     -33.74370000     -72.31890000
H      -46.63140000     -32.72540000     -73.21670000
C      -44.28090000     -31.52660000     -71.23460000
H      -44.52870000     -32.30500000     -72.05660000
H      -43.90060000     -30.63350000     -71.68190000
C      -45.46300000     -31.26490000     -70.41670000
C      -45.43670000     -30.26600000     -69.44850000
C      -46.71970000     -32.01090000     -70.40430000
H      -44.54930000     -29.69060000     -69.25790000
C      -47.54620000     -31.56810000     -69.38360000
C      -47.31480000     -32.94000000     -71.29230000
C      -48.60050000     -33.22070000     -70.96000000
S      -46.79800000     -30.33440000     -68.36270000
S      -49.15020000     -32.26370000     -69.50280000
H      -49.22870000     -34.01180000     -71.37860000
