40
Properties=species:S:1:pos:R:3 #=T CELL(abcABC):=T 1.889726e+02=T 90.00000=T Traj:=T positionsangstrom=T Step:=T 0=T Bead:=T pbc="F F F"
C      -48.29200000     -33.10130000     -71.52130000
C      -47.46000000     -34.15510000     -70.96860000
C      -46.50970000     -34.70880000     -71.77690000
C      -46.23190000     -34.21260000     -73.07110000
C      -46.94980000     -33.10700000     -73.58240000
C      -48.04530000     -32.57490000     -72.78070000
H      -49.08280000     -32.68940000     -70.91240000
H      -45.78250000     -35.39170000     -71.41470000
H      -46.71050000     -32.65560000     -74.56640000
H      -48.73630000     -31.84140000     -73.20380000
C      -45.34320000     -34.96410000     -74.01760000
H      -44.87510000     -34.26510000     -74.81840000
H      -45.94990000     -35.76310000     -74.55540000
C      -47.63060000     -34.47880000     -69.52330000
H      -47.57990000     -33.59660000     -68.85420000
H      -48.64290000     -34.84620000     -69.44850000
S      -43.93340000     -35.86780000     -73.25350000
S      -46.67270000     -35.88130000     -68.82360000
C      -42.55140000     -34.65310000     -73.28200000
H      -41.70110000     -35.31960000     -73.26840000
H      -42.68740000     -34.07440000     -74.24120000
C      -45.24620000     -34.97780000     -68.08090000
H      -44.76740000     -35.75160000     -67.44980000
H      -45.76220000     -34.18060000     -67.53230000
C      -44.23450000     -34.30080000     -69.02210000
H      -43.35950000     -34.12370000     -68.28690000
H      -44.04190000     -34.93770000     -69.94030000
C      -42.35920000     -33.77320000     -72.11190000
H      -41.42300000     -33.24460000     -72.40300000
H      -42.31930000     -34.33070000     -71.20700000
C      -43.40270000     -32.73990000     -72.03870000
C      -43.52920000     -31.81440000     -73.05040000
C      -44.21270000     -32.36020000     -70.88600000
H      -43.08760000     -31.90050000     -74.02920000
C      -44.83670000     -31.14260000     -71.12640000
C      -44.54000000     -32.88950000     -69.53290000
C      -45.38670000     -32.05930000     -68.86620000
S      -44.47690000     -30.45620000     -72.66510000
S      -45.78210000     -30.56880000     -69.73740000
H      -45.89140000     -32.27770000     -67.90030000
