40
Properties=species:S:1:pos:R:3 #=T CELL(abcABC):=T 1.889726e+02=T 90.00000=T Traj:=T positionsangstrom=T Step:=T 0=T Bead:=T pbc="F F F"
C      -48.33690000     -33.01710000     -71.58080000
C      -47.46750000     -33.97960000     -71.06310000
C      -46.54570000     -34.62440000     -71.96760000
C      -46.38790000     -34.16090000     -73.30730000
C      -47.12660000     -33.02460000     -73.70160000
C      -48.12820000     -32.47020000     -72.89830000
H      -49.26520000     -32.76890000     -71.01260000
H      -45.99280000     -35.48600000     -71.55270000
H      -47.02770000     -32.57870000     -74.64520000
H      -48.71070000     -31.70310000     -73.35120000
C      -45.46170000     -34.85880000     -74.18830000
H      -44.80460000     -34.27100000     -74.82450000
H      -45.79270000     -35.63160000     -74.89420000
C      -47.61100000     -34.43300000     -69.59900000
H      -47.51710000     -33.59820000     -68.94390000
H      -48.57790000     -34.90480000     -69.38840000
S      -44.22350000     -35.97510000     -73.18500000
S      -46.47590000     -35.77420000     -68.95260000
C      -42.55010000     -35.17790000     -72.98870000
H      -41.89450000     -36.02940000     -72.65140000
H      -42.12540000     -34.94650000     -73.93890000
C      -45.14990000     -34.88000000     -67.97240000
H      -44.71800000     -35.66740000     -67.39210000
H      -45.66680000     -34.28390000     -67.20900000
C      -44.07960000     -34.12690000     -68.82920000
H      -43.17820000     -34.02050000     -68.26020000
H      -43.86110000     -34.86670000     -69.56820000
C      -42.44420000     -33.98400000     -71.90880000
H      -41.36310000     -33.65640000     -71.97300000
H      -42.37070000     -34.37930000     -70.84460000
C      -43.36270000     -32.81370000     -71.89730000
C      -43.20420000     -31.85880000     -72.88770000
C      -44.13110000     -32.36360000     -70.81180000
H      -42.69010000     -31.96510000     -73.84040000
C      -44.77780000     -31.11700000     -71.10680000
C      -44.54490000     -32.83470000     -69.41350000
C      -45.40700000     -31.95240000     -68.87530000
S      -44.42190000     -30.55240000     -72.65980000
S      -45.79010000     -30.54750000     -69.83040000
H      -45.90680000     -32.04340000     -67.90820000
