40
Properties=species:S:1:pos:R:3 #=T CELL(abcABC):=T 1.889726e+02=T 90.00000=T Traj:=T positionsangstrom=T Step:=T 0=T Bead:=T pbc="F F F"
C      -42.74980000     -36.08470000     -74.15310000
C      -43.76880000     -36.16040000     -73.20430000
C      -43.60130000     -35.65170000     -71.93260000
C      -42.45140000     -34.87660000     -71.63150000
C      -41.40070000     -34.76290000     -72.60360000
C      -41.57050000     -35.40600000     -73.86830000
H      -42.90530000     -36.45840000     -75.17010000
H      -44.42020000     -35.81620000     -71.24830000
H      -40.46750000     -34.19460000     -72.44730000
H      -40.67300000     -35.36170000     -74.48260000
C      -42.28130000     -34.45320000     -70.18060000
H      -41.25470000     -34.18800000     -69.82700000
H      -42.56570000     -35.34270000     -69.61460000
C      -45.04720000     -36.87940000     -73.53830000
H      -44.93850000     -37.74380000     -74.26330000
H      -45.57310000     -37.18650000     -72.59390000
S      -43.37550000     -33.10900000     -69.61230000
S      -46.23570000     -35.67920000     -74.41340000
C      -43.07960000     -31.60260000     -70.67480000
H      -42.77780000     -30.81800000     -69.99570000
H      -42.33020000     -31.85660000     -71.41930000
C      -47.09850000     -34.79010000     -73.00150000
H      -47.23280000     -35.58640000     -72.20120000
H      -48.04400000     -34.54750000     -73.36800000
C      -46.45590000     -33.51330000     -72.46660000
H      -45.37270000     -33.63350000     -72.30090000
H      -46.58500000     -32.81660000     -73.34030000
C      -44.28700000     -31.02810000     -71.32480000
H      -44.62290000     -31.59300000     -72.30640000
H      -44.17010000     -30.00460000     -71.62200000
C      -45.52390000     -30.96810000     -70.39750000
C      -45.73060000     -29.91040000     -69.51460000
C      -46.64010000     -31.86160000     -70.46750000
H      -45.02500000     -29.06400000     -69.37680000
C      -47.58150000     -31.50620000     -69.49900000
C      -47.19340000     -32.99730000     -71.27230000
C      -48.39720000     -33.45330000     -70.83950000
S      -47.18720000     -30.03540000     -68.59520000
S      -48.97780000     -32.51480000     -69.46120000
H      -49.03930000     -34.26600000     -71.20000000
