40
Properties=species:S:1:pos:R:3 #=T CELL(abcABC):=T 1.889726e+02=T 90.00000=T Traj:=T positionsangstrom=T Step:=T 0=T Bead:=T pbc="F F F"
C      -42.70460000     -33.82200000     -74.03870000
C      -43.82410000     -34.63950000     -74.03560000
C      -45.08140000     -34.00390000     -74.28910000
C      -45.14330000     -32.60000000     -74.39930000
C      -44.03480000     -31.79170000     -74.21130000
C      -42.79560000     -32.42420000     -74.15380000
H      -41.68770000     -34.20750000     -74.00990000
H      -45.95400000     -34.59360000     -74.49300000
H      -44.11800000     -30.73190000     -74.15210000
H      -41.82750000     -31.85700000     -74.21320000
C      -46.48060000     -32.06770000     -74.67540000
H      -47.00870000     -32.70370000     -75.39280000
H      -46.34010000     -31.05540000     -75.06740000
C      -43.75250000     -36.12670000     -73.75130000
H      -44.77550000     -36.57860000     -73.86360000
H      -43.17260000     -36.79580000     -74.37530000
S      -47.47900000     -31.79320000     -73.07450000
S      -43.18070000     -36.67190000     -72.03810000
C      -48.08830000     -33.52050000     -72.50540000
H      -49.16130000     -33.38270000     -72.30050000
H      -48.06850000     -34.06500000     -73.45650000
C      -43.49990000     -35.06460000     -71.10390000
H      -44.10550000     -34.52420000     -71.81100000
H      -42.54630000     -34.51710000     -71.02780000
C      -44.28500000     -35.32960000     -69.77440000
H      -45.10990000     -35.97930000     -70.09960000
H      -43.77750000     -36.01310000     -69.06320000
C      -47.23420000     -34.08870000     -71.38470000
H      -46.31270000     -34.53450000     -71.75200000
H      -47.94020000     -34.87280000     -71.00790000
C      -46.90580000     -33.13940000     -70.28270000
C      -47.67800000     -32.04020000     -70.04060000
C      -45.81020000     -33.22680000     -69.32530000
H      -48.49380000     -31.69910000     -70.71340000
C      -45.85420000     -32.17300000     -68.38300000
C      -44.78210000     -34.19450000     -69.02080000
C      -44.14630000     -33.81010000     -67.85140000
S      -47.20750000     -31.14040000     -68.59610000
S      -44.70640000     -32.36380000     -67.14040000
H      -43.18460000     -34.25830000     -67.55270000
