40
Properties=species:S:1:pos:R:3 #=T CELL(abcABC):=T 1.889726e+02=T 90.00000=T Traj:=T positionsangstrom=T Step:=T 0=T Bead:=T pbc="F F F"
C      -48.26600000     -32.87390000     -71.53730000
C      -47.50130000     -33.94840000     -71.01500000
C      -46.61710000     -34.65590000     -71.82570000
C      -46.38520000     -34.15890000     -73.12570000
C      -47.15520000     -33.15980000     -73.67560000
C      -48.01310000     -32.47730000     -72.81950000
H      -48.94080000     -32.31550000     -70.91500000
H      -45.98590000     -35.41450000     -71.41990000
H      -47.02420000     -32.76640000     -74.66900000
H      -48.50340000     -31.64880000     -73.26210000
C      -45.20380000     -34.74000000     -73.98300000
H      -44.56530000     -33.87710000     -74.33100000
H      -45.73070000     -35.12210000     -74.88050000
C      -47.69650000     -34.32610000     -69.54020000
H      -47.86540000     -33.46880000     -68.87380000
H      -48.73820000     -34.74700000     -69.58430000
S      -44.07980000     -35.94840000     -73.24470000
S      -46.53080000     -35.62450000     -69.05220000
C      -42.53500000     -34.93790000     -73.14010000
H      -41.66920000     -35.62180000     -73.17900000
H      -42.57870000     -34.15430000     -73.89720000
C      -45.34750000     -34.82010000     -67.94550000
H      -44.88860000     -35.63850000     -67.37150000
H      -45.89350000     -34.05420000     -67.30490000
C      -44.18420000     -34.10880000     -68.66950000
H      -43.47510000     -33.65850000     -67.88440000
H      -43.77470000     -34.82060000     -69.36010000
C      -42.52270000     -34.21610000     -71.77250000
H      -41.56860000     -33.85940000     -71.51440000
H      -42.89300000     -34.91240000     -71.01770000
C      -43.42920000     -33.02610000     -71.85430000
C      -43.35670000     -32.14380000     -72.92830000
C      -44.19250000     -32.45920000     -70.80140000
H      -42.84880000     -32.33620000     -73.85570000
C      -44.76970000     -31.24400000     -71.17050000
C      -44.51760000     -32.74840000     -69.40380000
C      -45.35570000     -31.86410000     -68.83140000
S      -44.32640000     -30.73430000     -72.78490000
S      -45.80910000     -30.53410000     -69.93650000
H      -45.82120000     -31.88000000     -67.86950000
