40
Properties=species:S:1:pos:R:3 #=T CELL(abcABC):=T 1.889726e+02=T 90.00000=T Traj:=T positionsangstrom=T Step:=T 0=T Bead:=T pbc="F F F"
C      -46.24390000     -31.98690000     -73.09990000
C      -44.95560000     -32.32300000     -73.42490000
C      -43.91150000     -31.88040000     -72.62450000
C      -44.16850000     -31.06670000     -71.45620000
C      -45.48140000     -30.73750000     -71.21490000
C      -46.58770000     -31.24550000     -71.96130000
H      -47.08580000     -32.39050000     -73.66290000
H      -42.83320000     -31.99960000     -72.90110000
H      -45.68580000     -29.95970000     -70.45340000
H      -47.63230000     -31.15840000     -71.78320000
C      -43.09820000     -30.62260000     -70.52540000
H      -43.51380000     -29.94630000     -69.79020000
H      -42.27240000     -30.28050000     -71.15690000
C      -44.68580000     -33.09640000     -74.65520000
H      -44.98910000     -32.45090000     -75.48270000
H      -43.55160000     -33.32310000     -74.76000000
S      -42.32590000     -31.84100000     -69.30010000
S      -45.70990000     -34.62130000     -74.95140000
C      -42.42030000     -33.44050000     -70.14000000
H      -42.75400000     -33.32100000     -71.16110000
H      -41.40670000     -33.82350000     -70.12190000
C      -44.96380000     -35.97640000     -73.91590000
H      -43.85940000     -36.09720000     -74.12820000
H      -45.47300000     -36.90460000     -74.06870000
C      -44.68010000     -35.60380000     -72.43780000
H      -44.39610000     -36.51580000     -71.94410000
H      -43.89390000     -34.91190000     -72.39280000
C      -43.39340000     -34.48380000     -69.50340000
H      -42.96410000     -34.78870000     -68.56550000
H      -43.32060000     -35.28210000     -70.25800000
C      -44.82960000     -34.19180000     -69.32360000
C      -45.35720000     -33.45750000     -68.30750000
C      -45.86000000     -34.46270000     -70.30500000
H      -44.86350000     -33.02040000     -67.45600000
C      -47.14530000     -34.12070000     -69.91740000
C      -45.88580000     -35.04190000     -71.63390000
C      -47.13570000     -35.22590000     -72.11940000
S      -47.10750000     -33.24390000     -68.38600000
S      -48.40830000     -34.50890000     -71.05770000
H      -47.43740000     -35.50630000     -73.09000000
