40
Properties=species:S:1:pos:R:3 #=T CELL(abcABC):=T 1.889726e+02=T 90.00000=T Traj:=T positionsangstrom=T Step:=T 0=T Bead:=T pbc="F F F"
C      -45.69740000     -31.44270000     -73.28320000
C      -44.37370000     -31.98460000     -73.51140000
C      -43.40950000     -31.72800000     -72.56280000
C      -43.66910000     -31.17070000     -71.26620000
C      -45.06860000     -30.92540000     -70.99690000
C      -46.00790000     -30.85030000     -72.05480000
H      -46.36480000     -31.38770000     -74.13350000
H      -42.41930000     -32.16750000     -72.76060000
H      -45.36400000     -30.61730000     -70.03790000
H      -46.95470000     -30.40900000     -71.93410000
C      -42.59710000     -31.07600000     -70.21870000
H      -42.63890000     -30.14110000     -69.63400000
H      -41.63600000     -30.99670000     -70.78960000
C      -44.13200000     -32.67110000     -74.77670000
H      -44.28430000     -31.87590000     -75.53660000
H      -43.11440000     -33.10740000     -74.84380000
S      -42.53880000     -32.55460000     -69.08400000
S      -45.55350000     -33.90190000     -75.10730000
C      -42.73400000     -34.04540000     -70.09680000
H      -43.14870000     -33.76250000     -71.08550000
H      -41.75950000     -34.56710000     -70.27520000
C      -45.19850000     -35.39770000     -74.05330000
H      -44.29960000     -35.95970000     -74.46010000
H      -46.02950000     -36.03250000     -74.35570000
C      -45.04010000     -35.26790000     -72.55800000
H      -44.52290000     -36.17780000     -72.08210000
H      -44.28360000     -34.58790000     -72.29690000
C      -43.70930000     -35.06000000     -69.51150000
H      -43.31360000     -35.30360000     -68.50210000
H      -43.64010000     -35.97880000     -70.10130000
C      -45.10980000     -34.53940000     -69.39280000
C      -45.61840000     -34.24100000     -68.16140000
C      -46.14610000     -34.51270000     -70.42820000
H      -45.04920000     -34.03800000     -67.27290000
C      -47.37230000     -34.06810000     -69.94800000
C      -46.27270000     -34.90140000     -71.82350000
C      -47.48640000     -34.72620000     -72.37880000
S      -47.28740000     -33.75320000     -68.18780000
S      -48.64960000     -34.12600000     -71.13490000
H      -47.74070000     -34.96920000     -73.39280000
