40
Properties=species:S:1:pos:R:3 #=T CELL(abcABC):=T 1.889726e+02=T 90.00000=T Traj:=T positionsangstrom=T Step:=T 0=T Bead:=T pbc="F F F"
C      -46.23450000     -31.82640000     -73.04270000
C      -44.93970000     -32.26590000     -73.35930000
C      -43.90150000     -31.91130000     -72.49590000
C      -44.15570000     -31.16720000     -71.37230000
C      -45.45310000     -30.83390000     -71.06180000
C      -46.53190000     -31.20400000     -71.88430000
H      -47.13360000     -32.08060000     -73.54310000
H      -42.94420000     -32.20440000     -72.84580000
H      -45.49940000     -30.43960000     -70.12710000
H      -47.57180000     -31.05710000     -71.64820000
C      -42.94680000     -30.74530000     -70.55020000
H      -43.22050000     -29.83120000     -69.97750000
H      -42.20950000     -30.34700000     -71.28140000
C      -44.58000000     -33.11010000     -74.57380000
H      -44.66290000     -32.45940000     -75.45960000
H      -43.63070000     -33.50050000     -74.47450000
S      -42.25480000     -31.94790000     -69.40500000
S      -45.64590000     -34.56540000     -74.91350000
C      -42.47780000     -33.58540000     -70.14300000
H      -42.63620000     -33.54480000     -71.20850000
H      -41.49890000     -34.12810000     -70.05440000
C      -44.85720000     -35.88380000     -73.92180000
H      -43.98370000     -36.30740000     -74.36930000
H      -45.67230000     -36.59260000     -74.00390000
C      -44.66390000     -35.47000000     -72.42510000
H      -44.18540000     -36.41530000     -71.98140000
H      -43.81170000     -34.70830000     -72.36420000
C      -43.42280000     -34.49570000     -69.30870000
H      -43.19360000     -34.45080000     -68.22660000
H      -43.29340000     -35.53150000     -69.67420000
C      -44.88030000     -34.09870000     -69.37320000
C      -45.46100000     -33.33200000     -68.36150000
C      -45.87600000     -34.39950000     -70.40810000
H      -45.05360000     -33.05420000     -67.38690000
C      -47.15490000     -34.01090000     -70.04530000
C      -45.97520000     -35.07090000     -71.67680000
C      -47.26940000     -35.33410000     -72.09670000
S      -47.22900000     -33.21390000     -68.53720000
S      -48.43380000     -34.54940000     -71.06030000
H      -47.61300000     -35.67640000     -73.06780000
