40
Properties=species:S:1:pos:R:3 #=T CELL(abcABC):=T 1.889726e+02=T 90.00000=T Traj:=T positionsangstrom=T Step:=T 0=T Bead:=T pbc="F F F"
C      -42.62430000     -33.81260000     -73.87260000
C      -43.76330000     -34.66920000     -73.92400000
C      -45.02290000     -34.13360000     -74.21640000
C      -45.21580000     -32.76790000     -74.49450000
C      -44.09170000     -31.95700000     -74.53650000
C      -42.85490000     -32.44180000     -74.11750000
H      -41.65810000     -34.19180000     -73.48890000
H      -45.92030000     -34.74970000     -74.14010000
H      -44.18910000     -30.94230000     -74.94510000
H      -41.98390000     -31.74730000     -74.12490000
C      -46.61620000     -32.14630000     -74.76640000
H      -47.20850000     -32.84680000     -75.35160000
H      -46.52600000     -31.15090000     -75.30280000
C      -43.62670000     -36.20130000     -73.73160000
H      -44.57530000     -36.58610000     -73.99460000
H      -42.84690000     -36.52280000     -74.45750000
S      -47.60430000     -31.80540000     -73.25900000
S      -43.14190000     -36.56900000     -72.00780000
C      -47.99530000     -33.51630000     -72.59500000
H      -48.99460000     -33.57440000     -72.13210000
H      -48.07420000     -34.32360000     -73.37260000
C      -43.67680000     -35.10830000     -71.00500000
H      -44.11370000     -34.30220000     -71.54740000
H      -42.70840000     -34.70150000     -70.60950000
C      -44.51340000     -35.44040000     -69.71240000
H      -45.48740000     -35.85830000     -69.89800000
H      -43.86270000     -36.02400000     -69.09490000
C      -47.08920000     -34.05470000     -71.50000000
H      -46.04150000     -34.24490000     -71.82870000
H      -47.48950000     -35.00310000     -71.16940000
C      -46.91320000     -33.08040000     -70.22140000
C      -47.66710000     -31.95590000     -70.01390000
C      -45.89270000     -33.27490000     -69.20920000
H      -48.64380000     -31.74100000     -70.54100000
C      -45.89030000     -32.20150000     -68.31860000
C      -44.76360000     -34.14100000     -68.93770000
C      -43.94730000     -33.70860000     -67.90250000
S      -47.16530000     -31.08820000     -68.56940000
S      -44.64170000     -32.28810000     -67.09740000
H      -43.15400000     -34.27620000     -67.47000000
