40
Properties=species:S:1:pos:R:3 #=T CELL(abcABC):=T 1.889726e+02=T 90.00000=T Traj:=T positionsangstrom=T Step:=T 0=T Bead:=T pbc="F F F"
C      -46.05670000     -31.75150000     -72.74370000
C      -44.85440000     -32.08160000     -73.41190000
C      -43.66810000     -31.67270000     -72.71260000
C      -43.63690000     -31.15520000     -71.41890000
C      -44.84400000     -30.93050000     -70.81280000
C      -46.05550000     -31.20630000     -71.41420000
H      -47.00230000     -31.92440000     -73.27310000
H      -42.67260000     -32.01460000     -73.11260000
H      -44.95680000     -30.62460000     -69.73030000
H      -46.98760000     -31.01620000     -70.82360000
C      -42.36680000     -31.04110000     -70.60960000
H      -42.20740000     -30.01960000     -70.32510000
H      -41.51760000     -31.26970000     -71.23220000
C      -44.80660000     -32.69910000     -74.81120000
H      -45.23860000     -32.13400000     -75.53330000
H      -43.73160000     -32.79580000     -74.98040000
S      -42.40730000     -32.16370000     -69.15870000
S      -45.86900000     -34.22890000     -74.97450000
C      -42.56650000     -33.86360000     -69.99430000
H      -42.73710000     -33.70310000     -71.04620000
H      -41.63800000     -34.39540000     -69.93290000
C      -45.03790000     -35.60030000     -74.00980000
H      -43.98380000     -35.46220000     -74.39230000
H      -45.24500000     -36.64120000     -74.32440000
C      -44.83450000     -35.51780000     -72.51490000
H      -44.32040000     -36.46280000     -72.15180000
H      -44.07740000     -34.80450000     -72.25990000
C      -43.62650000     -34.79500000     -69.45910000
H      -43.32060000     -35.02070000     -68.42980000
H      -43.49660000     -35.71920000     -69.99010000
C      -45.04820000     -34.28610000     -69.43320000
C      -45.63240000     -33.60360000     -68.36190000
C      -46.03830000     -34.50220000     -70.44840000
H      -45.05130000     -33.35950000     -67.46690000
C      -47.27870000     -34.07760000     -70.02270000
C      -46.02420000     -35.12370000     -71.72870000
C      -47.25980000     -35.17150000     -72.33750000
S      -47.31040000     -33.28930000     -68.50900000
S      -48.47150000     -34.45190000     -71.19940000
H      -47.54790000     -35.52450000     -73.32990000
