40
Properties=species:S:1:pos:R:3 #=T CELL(abcABC):=T 1.889726e+02=T 90.00000=T Traj:=T positionsangstrom=T Step:=T 0=T Bead:=T pbc="F F F"
C      -42.61480000     -33.80530000     -73.96600000
C      -43.69390000     -34.74510000     -73.99790000
C      -44.93220000     -34.25630000     -74.45460000
C      -45.24630000     -32.93820000     -74.74530000
C      -44.17170000     -31.98300000     -74.62390000
C      -42.91170000     -32.43180000     -74.24790000
H      -41.60760000     -34.09970000     -73.73270000
H      -45.76890000     -34.95580000     -74.62690000
H      -44.46870000     -30.93120000     -74.56580000
H      -42.18320000     -31.74390000     -73.96700000
C      -46.69820000     -32.45780000     -75.05250000
H      -47.17850000     -33.24350000     -75.60450000
H      -46.77660000     -31.59060000     -75.70000000
C      -43.56500000     -36.10960000     -73.62620000
H      -44.52730000     -36.67720000     -73.76480000
H      -42.78740000     -36.57700000     -74.26560000
S      -47.59160000     -31.93420000     -73.52380000
S      -43.12080000     -36.49820000     -71.82090000
C      -47.97680000     -33.37680000     -72.48500000
H      -48.86860000     -33.07480000     -71.92000000
H      -48.18710000     -34.16910000     -73.23330000
C      -43.42190000     -35.01620000     -70.77980000
H      -43.90930000     -34.19680000     -71.37970000
H      -42.50330000     -34.64270000     -70.30120000
C      -44.50880000     -35.42560000     -69.72810000
H      -45.41110000     -35.77770000     -70.37380000
H      -44.21990000     -36.29360000     -69.07230000
C      -46.93130000     -33.87300000     -71.41680000
H      -45.95840000     -33.74940000     -71.93000000
H      -46.98940000     -34.97970000     -71.42440000
C      -46.97050000     -32.98530000     -70.19150000
C      -47.75920000     -31.89920000     -69.89490000
C      -45.93500000     -33.16840000     -69.16070000
H      -48.50780000     -31.53270000     -70.64100000
C      -45.92960000     -32.15600000     -68.22510000
C      -44.83360000     -34.16470000     -68.89650000
C      -44.06640000     -33.81730000     -67.82510000
S      -47.24550000     -30.98260000     -68.45370000
S      -44.60590000     -32.33990000     -67.02910000
H      -43.25810000     -34.43980000     -67.44970000
