40
Properties=species:S:1:pos:R:3 #=T CELL(abcABC):=T 1.889726e+02=T 90.00000=T Traj:=T positionsangstrom=T Step:=T 0=T Bead:=T pbc="F F F"
C      -45.19250000     -31.16930000     -73.10960000
C      -44.09790000     -31.99560000     -73.27490000
C      -43.21920000     -32.23200000     -72.16510000
C      -43.57750000     -31.80210000     -70.88100000
C      -44.66780000     -30.96260000     -70.70790000
C      -45.49220000     -30.64180000     -71.80900000
H      -45.90340000     -30.87430000     -73.91190000
H      -42.40800000     -32.97030000     -72.29880000
H      -44.92440000     -30.57860000     -69.75060000
H      -46.44260000     -30.12790000     -71.61980000
C      -42.62580000     -32.05480000     -69.76360000
H      -42.58260000     -31.24890000     -69.12320000
H      -41.64010000     -32.26800000     -70.26230000
C      -43.88180000     -32.63000000     -74.59780000
H      -43.59490000     -31.81550000     -75.33490000
H      -43.08930000     -33.22120000     -74.59770000
S      -42.95500000     -33.50350000     -68.69930000
S      -45.24620000     -33.62380000     -75.35630000
C      -43.03070000     -34.75700000     -70.00850000
H      -43.23920000     -34.21450000     -70.91230000
H      -42.07200000     -35.28710000     -70.10580000
C      -45.38260000     -35.13640000     -74.26630000
H      -44.71800000     -35.91790000     -74.58900000
H      -46.36710000     -35.46430000     -74.38740000
C      -45.12820000     -34.93310000     -72.79750000
H      -44.90380000     -35.92520000     -72.45800000
H      -44.21840000     -34.41810000     -72.57940000
C      -44.20340000     -35.67900000     -69.87450000
H      -44.01410000     -36.43390000     -69.08470000
H      -44.34610000     -36.25030000     -70.76310000
C      -45.50040000     -34.91550000     -69.59780000
C      -46.00990000     -34.77720000     -68.31880000
C      -46.33920000     -34.32080000     -70.63330000
H      -45.63230000     -35.25580000     -67.41750000
C      -47.51980000     -33.76990000     -70.06860000
C      -46.19870000     -34.20700000     -72.04820000
C      -47.23070000     -33.49640000     -72.56250000
S      -47.45440000     -33.73130000     -68.31730000
S      -48.47010000     -33.03870000     -71.36560000
H      -47.51410000     -33.36270000     -73.56680000
