40
Properties=species:S:1:pos:R:3 #=T CELL(abcABC):=T 1.889726e+02=T 90.00000=T Traj:=T positionsangstrom=T Step:=T 0=T Bead:=T pbc="F F F"
C      -44.99260000     -31.23210000     -72.99040000
C      -43.85770000     -32.07550000     -73.19590000
C      -42.96660000     -32.31160000     -72.13660000
C      -43.34330000     -31.81960000     -70.88890000
C      -44.48420000     -31.00270000     -70.67840000
C      -45.33890000     -30.71810000     -71.76840000
H      -45.60030000     -31.12840000     -73.89830000
H      -42.05320000     -32.95210000     -72.21130000
H      -44.74800000     -30.72940000     -69.66190000
H      -46.26750000     -30.18470000     -71.72940000
C      -42.43230000     -32.10110000     -69.71540000
H      -42.50170000     -31.31270000     -69.01700000
H      -41.33670000     -32.16820000     -70.02270000
C      -43.68870000     -32.70060000     -74.55410000
H      -43.27440000     -31.95570000     -75.22880000
H      -43.03770000     -33.61150000     -74.46550000
S      -42.84970000     -33.57350000     -68.72480000
S      -45.31070000     -33.26610000     -75.29290000
C      -43.08690000     -35.03870000     -69.92230000
H      -42.97050000     -34.71070000     -70.95220000
H      -42.26750000     -35.72330000     -69.76910000
C      -45.54510000     -34.95250000     -74.52120000
H      -44.85180000     -35.65750000     -75.02090000
H      -46.59790000     -35.19650000     -74.76920000
C      -45.37920000     -35.06570000     -73.03100000
H      -45.41710000     -36.14230000     -72.75340000
H      -44.35910000     -34.63830000     -72.81120000
C      -44.38680000     -35.76380000     -69.67220000
H      -44.31390000     -36.26500000     -68.71440000
H      -44.42370000     -36.68080000     -70.30680000
C      -45.65700000     -34.89870000     -69.56500000
C      -46.19800000     -34.68310000     -68.34690000
C      -46.27720000     -34.23230000     -70.66880000
H      -45.87750000     -35.13490000     -67.38000000
C      -47.44340000     -33.63820000     -70.14070000
C      -46.33240000     -34.28700000     -72.12670000
C      -47.42090000     -33.64440000     -72.54450000
S      -47.68080000     -33.77490000     -68.44550000
S      -48.45650000     -32.96290000     -71.29750000
H      -47.80370000     -33.45190000     -73.55170000
