40
Properties=species:S:1:pos:R:3 #=T CELL(abcABC):=T 1.889726e+02=T 90.00000=T Traj:=T positionsangstrom=T Step:=T 0=T Bead:=T pbc="F F F"
C      -44.77140000     -30.93730000     -72.35650000
C      -43.89860000     -31.92590000     -72.77500000
C      -42.95870000     -32.41640000     -71.88820000
C      -42.86770000     -31.97990000     -70.54720000
C      -43.69180000     -30.99470000     -70.11110000
C      -44.68240000     -30.49650000     -71.00330000
H      -45.62690000     -30.66470000     -72.98330000
H      -42.19800000     -33.21970000     -72.25240000
H      -43.52520000     -30.56220000     -69.11370000
H      -45.32260000     -29.62130000     -70.63290000
C      -41.93730000     -32.88680000     -69.67650000
H      -41.50700000     -32.32660000     -68.84660000
H      -41.09410000     -33.43880000     -70.20250000
C      -43.75230000     -32.34170000     -74.22610000
H      -43.34310000     -31.46020000     -74.89310000
H      -42.94110000     -33.10190000     -74.20390000
S      -42.92770000     -34.12820000     -68.81930000
S      -45.29280000     -32.99990000     -74.98350000
C      -43.33610000     -35.44270000     -70.04160000
H      -43.03640000     -35.06430000     -70.99870000
H      -42.60970000     -36.26920000     -69.88720000
C      -45.14790000     -34.77000000     -74.54500000
H      -44.13450000     -35.10670000     -75.01750000
H      -45.88300000     -35.37980000     -75.05180000
C      -45.38540000     -35.10520000     -73.08070000
H      -45.73530000     -36.13720000     -72.96080000
H      -44.52370000     -34.98460000     -72.42250000
C      -44.76670000     -35.97150000     -69.93050000
H      -44.72050000     -36.70240000     -69.09210000
H      -44.98260000     -36.72520000     -70.73940000
C      -45.93620000     -34.92800000     -69.81390000
C      -46.45250000     -34.58790000     -68.58300000
C      -46.58870000     -34.17360000     -70.92380000
H      -46.16100000     -34.82460000     -67.58470000
C      -47.62640000     -33.46690000     -70.45090000
C      -46.51200000     -34.24930000     -72.38050000
C      -47.63530000     -33.66580000     -72.99870000
S      -47.86240000     -33.51080000     -68.69580000
S      -48.62670000     -32.82900000     -71.73000000
H      -47.77970000     -33.46420000     -74.02580000
