40
Properties=species:S:1:pos:R:3 #=T CELL(abcABC):=T 1.889726e+02=T 90.00000=T Traj:=T positionsangstrom=T Step:=T 0=T Bead:=T pbc="F F F"
C      -45.69320000     -31.49170000     -73.18070000
C      -44.42830000     -32.04270000     -73.42950000
C      -43.45720000     -31.97360000     -72.42140000
C      -43.72580000     -31.34560000     -71.15880000
C      -44.95190000     -30.71670000     -70.97810000
C      -45.86760000     -30.69780000     -72.03270000
H      -46.50590000     -31.51020000     -73.89440000
H      -42.43550000     -32.41400000     -72.52120000
H      -45.25990000     -30.31360000     -70.03240000
H      -46.86590000     -30.27800000     -71.78060000
C      -42.67550000     -31.42190000     -70.12750000
H      -42.51940000     -30.50900000     -69.57990000
H      -41.72260000     -31.62800000     -70.63000000
C      -44.06450000     -32.73820000     -74.74310000
H      -44.06490000     -31.91830000     -75.60870000
H      -43.12370000     -33.23490000     -74.67100000
S      -42.98560000     -32.79060000     -68.79680000
S      -45.47750000     -33.90280000     -75.25180000
C      -42.58080000     -34.20790000     -69.75720000
H      -42.41750000     -33.95110000     -70.78590000
H      -41.65270000     -34.60870000     -69.38330000
C      -45.26960000     -35.44430000     -74.33510000
H      -44.30150000     -35.79280000     -74.64360000
H      -45.94920000     -36.19470000     -74.63500000
C      -45.21440000     -35.29000000     -72.77540000
H      -45.26330000     -36.36460000     -72.44220000
H      -44.21520000     -35.03870000     -72.51610000
C      -43.72240000     -35.30940000     -69.58640000
H      -43.53670000     -35.89770000     -68.65440000
H      -43.63230000     -35.95670000     -70.44100000
C      -45.13530000     -34.83480000     -69.48820000
C      -45.65890000     -34.78880000     -68.19740000
C      -46.13650000     -34.42110000     -70.47490000
H      -45.05110000     -34.81370000     -67.26900000
C      -47.31620000     -33.84290000     -69.96970000
C      -46.16300000     -34.51640000     -71.92090000
C      -47.35740000     -34.00820000     -72.42270000
S      -47.27220000     -34.07330000     -68.21730000
S      -48.39090000     -33.31210000     -71.27260000
H      -47.64540000     -34.06800000     -73.50830000
