40
Properties=species:S:1:pos:R:3 #=T CELL(abcABC):=T 1.889726e+02=T 90.00000=T Traj:=T positionsangstrom=T Step:=T 0=T Bead:=T pbc="F F F"
C      -46.02710000     -31.01070000     -68.35310000
C      -44.70210000     -31.50720000     -68.56260000
C      -43.94480000     -31.01120000     -69.67320000
C      -44.49940000     -30.11550000     -70.53430000
C      -45.75230000     -29.58610000     -70.27080000
C      -46.45960000     -29.99190000     -69.15940000
H      -46.55400000     -31.22110000     -67.48810000
H      -43.00110000     -31.39950000     -69.90140000
H      -46.24340000     -28.86320000     -70.94810000
H      -47.49180000     -29.71170000     -69.01500000
C      -43.75520000     -29.59220000     -71.73660000
H      -42.72360000     -29.86200000     -71.79490000
H      -43.84860000     -28.55800000     -71.71870000
C      -44.07540000     -32.32470000     -67.51770000
H      -42.98770000     -32.36050000     -67.65570000
H      -44.29600000     -31.88090000     -66.52470000
S      -44.54560000     -30.21250000     -73.27060000
S      -44.79860000     -34.05000000     -67.41700000
C      -45.20110000     -31.86010000     -72.95950000
H      -45.88470000     -31.88180000     -72.11240000
H      -45.87990000     -32.09010000     -73.84720000
C      -44.96660000     -34.63350000     -69.19480000
H      -45.01220000     -35.66890000     -68.97870000
H      -43.99290000     -34.51970000     -69.65170000
C      -46.17510000     -34.26350000     -70.05440000
H      -47.09440000     -34.20810000     -69.41060000
H      -46.08230000     -33.20590000     -70.29090000
C      -44.13560000     -32.97910000     -72.84900000
H      -43.66400000     -32.91960000     -71.84720000
H      -43.29070000     -32.74410000     -73.52140000
C      -44.70450000     -34.29850000     -73.23000000
C      -44.38390000     -34.78960000     -74.45750000
C      -45.77040000     -35.08390000     -72.56350000
H      -43.76730000     -34.31020000     -75.11690000
C      -46.13680000     -36.19930000     -73.34570000
C      -46.33000000     -35.24260000     -71.24090000
C      -47.22170000     -36.29610000     -71.10680000
S      -45.23710000     -36.35100000     -74.80230000
S      -47.31660000     -37.28290000     -72.58670000
H      -47.76210000     -36.60750000     -70.22230000
