40
Properties=species:S:1:pos:R:3 #=T CELL(abcABC):=T 1.889726e+02=T 90.00000=T Traj:=T positionsangstrom=T Step:=T 0=T Bead:=T pbc="F F F"
C      -44.77450000     -31.46760000     -71.98560000
C      -43.62080000     -32.17420000     -72.48490000
C      -42.70170000     -32.56070000     -71.53000000
C      -42.84070000     -32.30670000     -70.09940000
C      -43.91820000     -31.47790000     -69.71760000
C      -44.84790000     -31.06120000     -70.65460000
H      -45.54560000     -31.09430000     -72.62700000
H      -41.78020000     -33.00710000     -71.91030000
H      -44.00170000     -31.18060000     -68.67580000
H      -45.67830000     -30.36680000     -70.42210000
C      -42.07680000     -33.14420000     -69.12390000
H      -42.05730000     -32.56190000     -68.17300000
H      -41.05630000     -33.40420000     -69.42960000
C      -43.27430000     -32.18230000     -73.95310000
H      -42.88010000     -31.15140000     -74.31090000
H      -42.46710000     -32.91930000     -74.14480000
S      -42.94870000     -34.77380000     -68.73910000
S      -44.74690000     -32.60450000     -75.03740000
C      -43.48480000     -35.58000000     -70.29930000
H      -43.28410000     -34.93840000     -71.14020000
H      -42.90040000     -36.50930000     -70.42670000
C      -45.12170000     -34.35430000     -74.74220000
H      -44.28200000     -34.96420000     -74.99500000
H      -45.89670000     -34.57780000     -75.48740000
C      -45.41500000     -34.69300000     -73.26060000
H      -45.78180000     -35.72230000     -73.25260000
H      -44.41800000     -34.65270000     -72.74870000
C      -44.99680000     -35.89320000     -70.26330000
H      -45.16350000     -36.54340000     -69.39460000
H      -45.32490000     -36.53660000     -71.11840000
C      -45.96900000     -34.71610000     -70.08610000
C      -46.50490000     -34.31020000     -68.87820000
C      -46.74330000     -34.04500000     -71.09560000
H      -46.01280000     -34.34490000     -67.88470000
C      -47.85160000     -33.28240000     -70.63110000
C      -46.55640000     -34.03600000     -72.51790000
C      -47.63310000     -33.34110000     -73.13550000
S      -47.99110000     -33.32000000     -68.86700000
S      -48.84310000     -32.71740000     -71.93190000
H      -47.74550000     -32.82840000     -74.14430000
