40
Properties=species:S:1:pos:R:3 #=T CELL(abcABC):=T 1.889726e+02=T 90.00000=T Traj:=T positionsangstrom=T Step:=T 0=T Bead:=T pbc="F F F"
C      -42.70270000     -33.73410000     -73.77520000
C      -43.70020000     -34.73480000     -73.88320000
C      -44.99900000     -34.43800000     -74.32870000
C      -45.32890000     -33.15490000     -74.74550000
C      -44.34960000     -32.15060000     -74.62790000
C      -43.04640000     -32.45680000     -74.25450000
H      -41.74870000     -33.97640000     -73.40990000
H      -45.69560000     -35.29130000     -74.28160000
H      -44.57900000     -31.18460000     -75.06720000
H      -42.28760000     -31.72990000     -74.49110000
C      -46.75660000     -32.78490000     -75.20340000
H      -47.39690000     -33.73760000     -75.41900000
H      -46.90510000     -32.12570000     -76.03540000
C      -43.35590000     -36.14220000     -73.53330000
H      -44.11120000     -36.83170000     -73.87140000
H      -42.51860000     -36.46520000     -74.06860000
S      -47.67100000     -31.99120000     -73.74540000
S      -42.86070000     -36.48020000     -71.74720000
C      -47.91600000     -33.41510000     -72.63700000
H      -48.90120000     -33.21100000     -72.23570000
H      -48.10960000     -34.33050000     -73.23510000
C      -43.46880000     -34.96930000     -70.90030000
H      -43.82240000     -34.29770000     -71.65880000
H      -42.63100000     -34.54680000     -70.47380000
C      -44.50790000     -35.32130000     -69.83700000
H      -45.43630000     -35.73470000     -70.25350000
H      -44.24230000     -36.15780000     -69.30220000
C      -46.89530000     -33.70500000     -71.53070000
H      -45.87710000     -33.70750000     -71.86470000
H      -47.11680000     -34.63700000     -71.00130000
C      -46.80700000     -32.73870000     -70.25910000
C      -47.56230000     -31.65590000     -69.98920000
C      -45.78160000     -33.02110000     -69.23180000
H      -48.15590000     -31.10290000     -70.69120000
C      -45.98030000     -32.16020000     -68.20330000
C      -44.80530000     -34.06040000     -68.90260000
C      -44.15390000     -33.79290000     -67.72270000
S      -47.24490000     -30.94260000     -68.39660000
S      -44.81440000     -32.38170000     -66.82180000
H      -43.30200000     -34.37090000     -67.35010000
