40
Properties=species:S:1:pos:R:3 #=T CELL(abcABC):=T 1.889726e+02=T 90.00000=T Traj:=T positionsangstrom=T Step:=T 0=T Bead:=T pbc="F F F"
C      -44.36930000     -30.95420000     -71.69210000
C      -43.48040000     -31.92420000     -72.14930000
C      -42.96300000     -32.93910000     -71.34050000
C      -43.44060000     -33.03330000     -70.03120000
C      -44.38860000     -32.10960000     -69.55270000
C      -44.76320000     -31.01670000     -70.35980000
H      -44.73560000     -30.21790000     -72.39340000
H      -42.21880000     -33.68240000     -71.65150000
H      -44.92900000     -32.19580000     -68.57180000
H      -45.47540000     -30.26090000     -70.09740000
C      -42.80030000     -34.05120000     -69.11970000
H      -42.51030000     -33.71540000     -68.14560000
H      -41.88260000     -34.42470000     -69.51760000
C      -42.97810000     -31.88170000     -73.60670000
H      -42.58150000     -30.92880000     -73.90710000
H      -42.08240000     -32.54410000     -73.68660000
S      -43.83870000     -35.56160000     -68.58690000
S      -44.16580000     -32.33920000     -74.97000000
C      -44.16040000     -36.30670000     -70.33310000
H      -43.62810000     -35.73740000     -71.04420000
H      -43.80510000     -37.30480000     -70.35270000
C      -44.81860000     -34.09320000     -74.81580000
H      -44.18210000     -34.90250000     -75.11770000
H      -45.59460000     -34.10210000     -75.57260000
C      -45.21110000     -34.48480000     -73.34650000
H      -45.47690000     -35.51690000     -73.31090000
H      -44.28950000     -34.44580000     -72.74240000
C      -45.65350000     -36.30110000     -70.66190000
H      -46.09630000     -36.99890000     -69.92100000
H      -45.81150000     -36.73090000     -71.66780000
C      -46.42290000     -35.00910000     -70.47180000
C      -47.04170000     -34.84790000     -69.18770000
C      -46.72010000     -33.96110000     -71.38120000
H      -47.01830000     -35.46100000     -68.26040000
C      -47.48920000     -32.94030000     -70.80440000
C      -46.32850000     -33.57460000     -72.70340000
C      -46.94070000     -32.42890000     -73.11240000
S      -47.89170000     -33.31400000     -69.12190000
S      -47.93050000     -31.61810000     -71.82350000
H      -46.79230000     -31.99850000     -74.12760000
