40
Properties=species:S:1:pos:R:3 #=T CELL(abcABC):=T 1.889726e+02=T 90.00000=T Traj:=T positionsangstrom=T Step:=T 0=T Bead:=T pbc="F F F"
C      -44.53050000     -30.97890000     -72.21570000
C      -43.50310000     -31.85980000     -72.67440000
C      -42.76090000     -32.54200000     -71.65900000
C      -42.97740000     -32.38970000     -70.32950000
C      -44.11620000     -31.63470000     -69.90670000
C      -44.75940000     -30.89760000     -70.85630000
H      -45.08340000     -30.40480000     -72.92560000
H      -42.01910000     -33.20870000     -71.94910000
H      -44.37200000     -31.61250000     -68.83420000
H      -45.59270000     -30.34260000     -70.56450000
C      -42.00410000     -32.96390000     -69.31660000
H      -41.84230000     -32.24880000     -68.46830000
H      -41.14680000     -33.20680000     -69.92790000
C      -43.39020000     -32.32000000     -74.11960000
H      -42.83740000     -31.60660000     -74.67190000
H      -42.85300000     -33.24990000     -74.35350000
S      -42.76630000     -34.61710000     -68.64050000
S      -45.06950000     -32.56080000     -74.84550000
C      -43.49970000     -35.45630000     -70.20610000
H      -43.43780000     -34.59780000     -70.96730000
H      -42.85680000     -36.28710000     -70.51120000
C      -45.28460000     -34.44080000     -74.73310000
H      -44.39280000     -34.99560000     -75.07880000
H      -46.15690000     -34.75720000     -75.40760000
C      -45.41220000     -34.88870000     -73.19900000
H      -45.73270000     -35.94840000     -73.23440000
H      -44.42480000     -34.97840000     -72.76700000
C      -44.90290000     -35.93010000     -69.97190000
H      -44.99490000     -36.47940000     -69.04090000
H      -45.12730000     -36.61940000     -70.76270000
C      -46.10290000     -34.91120000     -69.96000000
C      -46.60150000     -34.49550000     -68.73650000
C      -46.69130000     -34.18030000     -71.04400000
H      -46.19920000     -34.65270000     -67.70820000
C      -47.72520000     -33.30880000     -70.61420000
C      -46.54160000     -34.25850000     -72.43760000
C      -47.64750000     -33.63830000     -73.07870000
S      -47.92080000     -33.22770000     -68.90190000
S      -48.70440000     -32.78740000     -71.93030000
H      -47.96260000     -33.60310000     -74.13760000
