40
Properties=species:S:1:pos:R:3 #=T CELL(abcABC):=T 1.889726e+02=T 90.00000=T Traj:=T positionsangstrom=T Step:=T 0=T Bead:=T pbc="F F F"
C      -43.31730000     -31.49060000     -70.44520000
C      -42.64030000     -32.55740000     -71.11840000
C      -42.73640000     -33.84760000     -70.57100000
C      -43.56150000     -34.06620000     -69.45580000
C      -44.32070000     -33.03410000     -68.88290000
C      -44.04820000     -31.69990000     -69.28980000
H      -43.23680000     -30.43530000     -70.80320000
H      -42.17820000     -34.67240000     -71.00580000
H      -44.99830000     -33.32180000     -68.06390000
H      -44.55460000     -30.83080000     -68.80910000
C      -43.69190000     -35.46200000     -68.86160000
H      -43.71370000     -35.45290000     -67.70350000
H      -42.87710000     -35.99470000     -69.23800000
C      -41.99400000     -32.31700000     -72.44280000
H      -41.05590000     -31.68910000     -72.41600000
H      -41.77120000     -33.29630000     -72.87130000
S      -45.24740000     -36.13790000     -69.48800000
S      -43.04780000     -31.35560000     -73.58970000
C      -45.06960000     -36.16710000     -71.37410000
H      -44.57750000     -35.26690000     -71.62540000
H      -44.40310000     -36.96710000     -71.69710000
C      -43.82520000     -32.76160000     -74.51120000
H      -43.05390000     -33.48720000     -74.85350000
H      -44.27870000     -32.36650000     -75.45560000
C      -44.71280000     -33.57590000     -73.57090000
H      -45.23590000     -34.39880000     -74.11540000
H      -43.98160000     -34.11490000     -72.97370000
C      -46.44500000     -36.22660000     -72.05150000
H      -47.03490000     -37.09840000     -71.84940000
H      -46.28170000     -36.09930000     -73.15040000
C      -47.26110000     -35.00970000     -71.60060000
C      -48.39080000     -35.06310000     -70.78420000
C      -46.71820000     -33.64770000     -71.78700000
H      -48.97020000     -35.83420000     -70.46180000
C      -47.64900000     -32.70390000     -71.24300000
C      -45.74840000     -32.91190000     -72.67550000
C      -45.96180000     -31.55260000     -72.63110000
S      -48.95310000     -33.43970000     -70.34120000
S      -47.33050000     -31.03150000     -71.59290000
H      -45.36700000     -30.80810000     -73.15670000
