40
Properties=species:S:1:pos:R:3 #=T CELL(abcABC):=T 1.889726e+02=T 90.00000=T Traj:=T positionsangstrom=T Step:=T 0=T Bead:=T pbc="F F F"
C      -44.32970000     -31.97730000     -69.60290000
C      -43.20520000     -32.82260000     -69.99000000
C      -43.27850000     -34.17040000     -69.86510000
C      -44.41500000     -34.78510000     -69.34870000
C      -45.48900000     -34.02790000     -68.89710000
C      -45.40390000     -32.60200000     -69.01860000
H      -44.22030000     -30.90800000     -69.60590000
H      -42.50110000     -34.83810000     -70.15720000
H      -46.25350000     -34.66360000     -68.50750000
H      -46.27680000     -32.07240000     -68.70750000
C      -44.44080000     -36.29780000     -69.17410000
H      -44.91940000     -36.53070000     -68.23700000
H      -43.44190000     -36.63870000     -69.25090000
C      -42.05960000     -32.15170000     -70.69260000
H      -41.42240000     -31.67040000     -69.99960000
H      -41.37980000     -32.83070000     -71.25820000
S      -45.41750000     -37.08360000     -70.63030000
S      -42.47750000     -30.77300000     -71.94760000
C      -44.74480000     -36.12410000     -72.02170000
H      -44.15350000     -35.28880000     -71.64770000
H      -44.06400000     -36.85770000     -72.58530000
C      -42.89320000     -31.67030000     -73.49000000
H      -41.90350000     -32.10370000     -73.86390000
H      -43.20990000     -31.03840000     -74.31470000
C      -44.01510000     -32.71330000     -73.35170000
H      -44.16380000     -33.06810000     -74.40960000
H      -43.65290000     -33.51370000     -72.71000000
C      -45.85050000     -35.69440000     -72.96640000
H      -46.39220000     -36.57020000     -73.16760000
H      -45.36410000     -35.45910000     -73.94050000
C      -46.65210000     -34.63050000     -72.40750000
C      -47.74640000     -34.95300000     -71.61790000
C      -46.43980000     -33.18340000     -72.49100000
H      -48.01440000     -35.99080000     -71.41820000
C      -47.57110000     -32.54940000     -71.88300000
C      -45.35360000     -32.24180000     -72.72670000
C      -45.80530000     -30.94620000     -72.56230000
S      -48.69920000     -33.57580000     -71.01320000
S      -47.41600000     -30.80560000     -71.98230000
H      -45.23890000     -29.99310000     -72.77660000
