40
Properties=species:S:1:pos:R:3 #=T CELL(abcABC):=T 1.889726e+02=T 90.00000=T Traj:=T positionsangstrom=T Step:=T 0=T Bead:=T pbc="F F F"
C      -48.66730000     -34.61950000     -70.26490000
C      -48.08150000     -35.02530000     -71.50730000
C      -47.99810000     -34.16210000     -72.60600000
C      -48.48710000     -32.87530000     -72.44560000
C      -48.99470000     -32.40970000     -71.21310000
C      -49.00330000     -33.28440000     -70.12450000
H      -48.65680000     -35.32370000     -69.36460000
H      -47.66760000     -34.62050000     -73.45120000
H      -49.44920000     -31.44550000     -71.02230000
H      -49.42130000     -32.96080000     -69.18160000
C      -48.34100000     -31.96270000     -73.68980000
H      -49.20070000     -31.39210000     -74.06730000
H      -47.90270000     -32.48470000     -74.53890000
C      -47.88510000     -36.52360000     -71.73370000
H      -47.89230000     -37.00390000     -70.74420000
H      -48.71620000     -36.91290000     -72.27670000
S      -47.20680000     -30.52710000     -73.18400000
S      -46.28150000     -37.00210000     -72.52050000
C      -45.54120000     -31.22070000     -72.84700000
H      -45.33340000     -32.15390000     -73.42730000
H      -44.71820000     -30.57640000     -73.24310000
C      -45.02790000     -36.31600000     -71.34330000
H      -44.12570000     -36.59590000     -71.86300000
H      -45.09630000     -36.74150000     -70.28450000
C      -44.97010000     -34.81110000     -71.27000000
H      -45.03840000     -34.29740000     -72.20320000
H      -45.78360000     -34.33330000     -70.71820000
C      -45.36400000     -31.43300000     -71.31700000
H      -45.94860000     -32.32050000     -70.92320000
H      -45.77320000     -30.57500000     -70.79550000
C      -43.88440000     -31.65230000     -70.94880000
C      -43.03560000     -30.60300000     -70.74850000
C      -43.25080000     -32.90450000     -70.55460000
H      -43.26150000     -29.57830000     -71.08480000
C      -41.97700000     -32.78400000     -69.97380000
C      -43.60990000     -34.34480000     -70.69200000
C      -42.76980000     -35.16360000     -70.06960000
S      -41.52450000     -31.09100000     -69.96150000
S      -41.29450000     -34.30060000     -69.35720000
H      -42.73850000     -36.22350000     -70.06890000
