40
Properties=species:S:1:pos:R:3 #=T CELL(abcABC):=T 1.889726e+02=T 90.00000=T Traj:=T positionsangstrom=T Step:=T 0=T Bead:=T pbc="F F F"
C      -43.62760000     -31.75800000     -70.11350000
C      -42.73270000     -32.63850000     -70.66190000
C      -42.83570000     -34.03830000     -70.22650000
C      -43.87910000     -34.49310000     -69.41560000
C      -44.80140000     -33.55540000     -68.89530000
C      -44.63670000     -32.20800000     -69.17370000
H      -43.51500000     -30.75300000     -70.45960000
H      -42.16660000     -34.76490000     -70.63810000
H      -45.56410000     -33.82130000     -68.21720000
H      -45.19310000     -31.43420000     -68.57010000
C      -44.00100000     -35.95240000     -69.16720000
H      -44.10600000     -36.18940000     -68.11060000
H      -43.04780000     -36.44670000     -69.34700000
C      -41.74540000     -32.36900000     -71.81060000
H      -40.75940000     -32.03730000     -71.48510000
H      -41.56000000     -33.31160000     -72.36610000
S      -45.40150000     -36.77360000     -70.08700000
S      -42.53230000     -31.13730000     -72.95410000
C      -45.09430000     -36.33880000     -71.81150000
H      -44.38210000     -35.57750000     -71.83800000
H      -44.72180000     -37.18960000     -72.33160000
C      -43.49930000     -32.23080000     -74.10110000
H      -42.86500000     -32.82490000     -74.79980000
H      -44.11360000     -31.55460000     -74.61830000
C      -44.48940000     -33.21380000     -73.42260000
H      -44.92040000     -33.86610000     -74.23870000
H      -43.90460000     -33.77230000     -72.67070000
C      -46.45360000     -35.93490000     -72.48590000
H      -47.13570000     -36.79750000     -72.28410000
H      -46.36500000     -35.66930000     -73.57230000
C      -47.06670000     -34.73260000     -71.85380000
C      -48.18270000     -34.88540000     -71.04850000
C      -46.66040000     -33.33010000     -71.96640000
H      -48.59630000     -35.90600000     -70.78210000
C      -47.67330000     -32.47970000     -71.42460000
C      -45.67340000     -32.57310000     -72.70110000
C      -45.95250000     -31.22210000     -72.58900000
S      -48.90020000     -33.34170000     -70.49780000
S      -47.38210000     -30.75790000     -71.66470000
H      -45.30590000     -30.43610000     -72.91430000
