40
Properties=species:S:1:pos:R:3 #=T CELL(abcABC):=T 1.889726e+02=T 90.00000=T Traj:=T positionsangstrom=T Step:=T 0=T Bead:=T pbc="F F F"
C      -44.69040000     -32.09810000     -69.11710000
C      -43.63390000     -32.83180000     -69.58220000
C      -43.69470000     -34.20960000     -69.61900000
C      -44.80210000     -34.89290000     -69.08530000
C      -45.94210000     -34.16510000     -68.72960000
C      -45.94070000     -32.71540000     -68.71990000
H      -44.58800000     -31.03370000     -69.22820000
H      -42.71980000     -34.59360000     -69.94550000
H      -46.93200000     -34.59570000     -68.46890000
H      -46.87780000     -32.11600000     -68.66140000
C      -44.79930000     -36.39870000     -69.16990000
H      -45.37800000     -36.79970000     -68.35410000
H      -43.82310000     -36.86650000     -69.15780000
C      -42.35790000     -32.08620000     -70.03760000
H      -41.84940000     -31.71700000     -69.16310000
H      -41.62700000     -32.72620000     -70.54190000
S      -45.56240000     -36.89050000     -70.79600000
S      -42.72730000     -30.63490000     -71.23170000
C      -44.37810000     -36.26860000     -72.09280000
H      -43.72310000     -35.51030000     -71.67120000
H      -43.78390000     -37.13960000     -72.47030000
C      -42.61600000     -31.44940000     -72.98590000
H      -41.62070000     -31.84590000     -73.18740000
H      -42.92370000     -30.64520000     -73.70330000
C      -43.61140000     -32.60350000     -73.04380000
H      -43.65100000     -33.05790000     -74.02400000
H      -43.32790000     -33.46990000     -72.41970000
C      -45.15310000     -35.62140000     -73.23660000
H      -45.59400000     -36.38330000     -73.85830000
H      -44.32240000     -35.20680000     -73.77330000
C      -46.24650000     -34.60660000     -72.75060000
C      -47.51750000     -35.03510000     -72.56220000
C      -46.06930000     -33.17280000     -72.58070000
H      -48.00070000     -36.04480000     -72.58200000
C      -47.30630000     -32.60180000     -72.14390000
C      -45.02960000     -32.20470000     -72.66330000
C      -45.54030000     -30.88860000     -72.68100000
S      -48.60710000     -33.76030000     -71.89240000
S      -47.27460000     -30.84720000     -72.21780000
H      -45.03670000     -29.94940000     -72.94760000
