40
Properties=species:S:1:pos:R:3 #=T CELL(abcABC):=T 1.889726e+02=T 90.00000=T Traj:=T positionsangstrom=T Step:=T 0=T Bead:=T pbc="F F F"
C      -44.70760000     -32.10060000     -69.56480000
C      -43.48500000     -32.83050000     -69.88960000
C      -43.52750000     -34.21080000     -69.57470000
C      -44.69100000     -34.91540000     -69.28010000
C      -45.86030000     -34.16820000     -69.15020000
C      -45.87510000     -32.77300000     -69.25280000
H      -44.60830000     -30.98130000     -69.80260000
H      -42.66290000     -34.84690000     -69.69570000
H      -46.75760000     -34.77550000     -69.09660000
H      -46.75770000     -32.24890000     -68.97730000
C      -44.67420000     -36.39690000     -69.04060000
H      -45.40960000     -36.62900000     -68.22750000
H      -43.67650000     -36.76660000     -68.93110000
C      -42.21570000     -32.19560000     -70.36190000
H      -41.66850000     -31.81680000     -69.49690000
H      -41.50430000     -32.98850000     -70.73030000
S      -45.33550000     -37.20910000     -70.57670000
S      -42.42680000     -30.72940000     -71.45990000
C      -44.49240000     -36.31710000     -71.95060000
H      -43.76240000     -35.63180000     -71.54230000
H      -43.89540000     -37.07130000     -72.46110000
C      -42.84910000     -31.42850000     -73.04800000
H      -41.92840000     -31.69080000     -73.61750000
H      -43.21800000     -30.65290000     -73.65240000
C      -43.88860000     -32.54120000     -73.21190000
H      -43.95910000     -32.70580000     -74.28420000
H      -43.45900000     -33.49000000     -72.85670000
C      -45.42520000     -35.57140000     -72.98460000
H      -46.07540000     -36.42650000     -73.28520000
H      -44.68870000     -35.33260000     -73.80870000
C      -46.40800000     -34.51140000     -72.47200000
C      -47.59950000     -34.92590000     -71.99370000
C      -46.27090000     -33.09390000     -72.48400000
H      -47.80990000     -35.92560000     -71.75690000
C      -47.41090000     -32.50680000     -72.01590000
C      -45.20060000     -32.16010000     -72.71880000
C      -45.67100000     -30.85230000     -72.62750000
S      -48.72680000     -33.57420000     -71.61010000
S      -47.30570000     -30.74130000     -72.16310000
H      -44.91810000     -30.03990000     -72.59950000
