40
Properties=species:S:1:pos:R:3 #=T CELL(abcABC):=T 1.889726e+02=T 90.00000=T Traj:=T positionsangstrom=T Step:=T 0=T Bead:=T pbc="F F F"
C      -43.44730000     -31.79610000     -70.33680000
C      -42.57240000     -32.79270000     -70.85210000
C      -42.83000000     -34.12520000     -70.40560000
C      -43.82000000     -34.40290000     -69.43330000
C      -44.63560000     -33.40540000     -68.96270000
C      -44.44080000     -32.07980000     -69.41960000
H      -43.38620000     -30.75490000     -70.73910000
H      -42.17560000     -34.88910000     -70.70620000
H      -45.41730000     -33.60270000     -68.23560000
H      -45.16150000     -31.42200000     -69.00980000
C      -43.97830000     -35.81570000     -68.89970000
H      -44.30320000     -35.74590000     -67.96310000
H      -43.06410000     -36.51530000     -69.09080000
C      -41.63070000     -32.33940000     -71.98700000
H      -40.82330000     -31.72440000     -71.56280000
H      -41.01520000     -33.16840000     -72.57080000
S      -45.37940000     -36.66310000     -69.89380000
S      -42.53200000     -31.27810000     -73.16650000
C      -44.95610000     -36.22740000     -71.69480000
H      -44.23790000     -35.42680000     -71.56030000
H      -44.37850000     -37.13230000     -72.13950000
C      -43.73270000     -32.25650000     -74.15360000
H      -43.13640000     -32.83070000     -74.87470000
H      -44.23640000     -31.50740000     -74.77800000
C      -44.61050000     -33.20270000     -73.34580000
H      -44.86020000     -34.01460000     -74.03420000
H      -44.08250000     -33.63380000     -72.51010000
C      -46.31900000     -35.81770000     -72.44480000
H      -46.91160000     -36.72780000     -72.52540000
H      -46.14110000     -35.44200000     -73.42700000
C      -47.09820000     -34.71990000     -71.74670000
C      -48.20830000     -34.91860000     -70.97420000
C      -46.79370000     -33.30230000     -71.90080000
H      -48.55900000     -35.98110000     -70.76910000
C      -47.73030000     -32.51350000     -71.29120000
C      -45.83670000     -32.61300000     -72.64950000
C      -46.02000000     -31.25350000     -72.55860000
S      -48.99090000     -33.46300000     -70.44150000
S      -47.47220000     -30.78660000     -71.62280000
H      -45.39980000     -30.52990000     -73.02660000
