40
Properties=species:S:1:pos:R:3 #=T CELL(abcABC):=T 1.889726e+02=T 90.00000=T Traj:=T positionsangstrom=T Step:=T 0=T Bead:=T pbc="F F F"
C      -49.07900000     -35.03240000     -70.92210000
C      -48.19690000     -35.36110000     -71.90700000
C      -47.74280000     -34.36680000     -72.73390000
C      -48.21270000     -33.05300000     -72.65610000
C      -49.12710000     -32.72900000     -71.62520000
C      -49.59100000     -33.76940000     -70.80880000
H      -49.45570000     -35.88020000     -70.43110000
H      -47.01670000     -34.51820000     -73.63250000
H      -49.45410000     -31.66810000     -71.45550000
H      -50.21720000     -33.47380000     -69.96200000
C      -47.73460000     -32.00980000     -73.77750000
H      -48.56640000     -31.70990000     -74.42650000
H      -46.96000000     -32.36440000     -74.45570000
C      -47.71800000     -36.74850000     -72.11300000
H      -48.05320000     -37.44690000     -71.31460000
H      -48.23090000     -37.04100000     -73.08710000
S      -47.10130000     -30.47510000     -73.11010000
S      -45.98570000     -36.94240000     -72.77940000
C      -45.39110000     -31.06080000     -72.53360000
H      -44.97750000     -31.71590000     -73.30620000
H      -44.61580000     -30.24750000     -72.55300000
C      -44.91460000     -36.09640000     -71.50240000
H      -44.11790000     -36.77190000     -71.19690000
H      -45.57690000     -35.97570000     -70.68950000
C      -44.34810000     -34.71620000     -71.96310000
H      -43.89970000     -34.84680000     -72.96510000
H      -45.24710000     -34.02690000     -72.04670000
C      -45.57910000     -31.66720000     -71.13150000
H      -46.06230000     -32.65710000     -71.13430000
H      -46.29040000     -31.02590000     -70.62570000
C      -44.21800000     -31.70420000     -70.45460000
C      -43.66810000     -30.65800000     -69.73990000
C      -43.35150000     -32.84490000     -70.42760000
H      -44.13070000     -29.68860000     -69.53030000
C      -42.24890000     -32.54360000     -69.63490000
C      -43.33410000     -34.19640000     -70.92720000
C      -42.27950000     -34.89510000     -70.45280000
S      -42.15300000     -30.98610000     -68.85130000
S      -41.18750000     -33.96490000     -69.41170000
H      -41.86450000     -35.87550000     -70.76620000
