40
Properties=species:S:1:pos:R:3 #=T CELL(abcABC):=T 1.889726e+02=T 90.00000=T Traj:=T positionsangstrom=T Step:=T 0=T Bead:=T pbc="F F F"
C      -45.23580000     -32.17010000     -69.27440000
C      -43.91330000     -32.62610000     -69.17120000
C      -43.72360000     -34.05320000     -69.16760000
C      -44.67650000     -34.94600000     -69.33370000
C      -46.03130000     -34.49300000     -69.44740000
C      -46.30700000     -33.13630000     -69.32900000
H      -45.53140000     -31.17840000     -69.30050000
H      -42.73190000     -34.45220000     -69.16590000
H      -46.86570000     -35.24800000     -69.54250000
H      -47.32350000     -32.75850000     -69.56050000
C      -44.58350000     -36.47700000     -69.41740000
H      -45.16370000     -37.00790000     -68.57090000
H      -43.50500000     -36.83270000     -69.28140000
C      -42.72730000     -31.69810000     -69.14640000
H      -42.66290000     -31.21100000     -68.12030000
H      -41.78810000     -32.17500000     -69.31110000
S      -45.24810000     -37.17450000     -71.00060000
S      -42.89030000     -30.40300000     -70.49510000
C      -44.15870000     -36.19190000     -72.12650000
H      -43.57220000     -35.49940000     -71.51100000
H      -43.36880000     -36.83900000     -72.54880000
C      -42.51340000     -31.32670000     -71.97900000
H      -41.61850000     -31.89650000     -71.81740000
H      -42.39770000     -30.68300000     -72.77070000
C      -43.52210000     -32.42150000     -72.59160000
H      -42.99650000     -32.59560000     -73.53110000
H      -43.32000000     -33.41530000     -72.03670000
C      -44.92550000     -35.47350000     -73.28420000
H      -45.32850000     -36.22880000     -73.93270000
H      -44.23360000     -34.95220000     -73.97960000
C      -46.10290000     -34.56860000     -72.98710000
C      -47.36540000     -34.99230000     -73.07180000
C      -46.08990000     -33.12910000     -72.75840000
H      -47.64170000     -36.01630000     -73.36490000
C      -47.35160000     -32.62940000     -72.48380000
C      -44.97350000     -32.18000000     -72.59000000
C      -45.51630000     -30.92030000     -72.28620000
S      -48.60810000     -33.82050000     -72.76700000
S      -47.30220000     -30.91380000     -72.12660000
H      -45.01110000     -29.98620000     -72.04960000
