40
Properties=species:S:1:pos:R:3 #=T CELL(abcABC):=T 1.889726e+02=T 90.00000=T Traj:=T positionsangstrom=T Step:=T 0=T Bead:=T pbc="F F F"
C      -45.15710000     -32.33240000     -68.63620000
C      -44.00980000     -32.85380000     -69.09290000
C      -43.99680000     -34.29440000     -69.30550000
C      -45.17950000     -35.07680000     -69.20320000
C      -46.39230000     -34.40350000     -68.81760000
C      -46.33490000     -33.08740000     -68.49010000
H      -45.29260000     -31.22410000     -68.57920000
H      -42.97660000     -34.64910000     -69.48230000
H      -47.28500000     -35.01860000     -68.66300000
H      -47.25910000     -32.45590000     -68.24330000
C      -45.16870000     -36.55360000     -69.50660000
H      -45.96540000     -37.09100000     -69.02060000
H      -44.27250000     -37.05670000     -69.08830000
C      -42.72850000     -32.05850000     -69.21260000
H      -42.32420000     -31.73170000     -68.19670000
H      -41.85690000     -32.62610000     -69.56700000
S      -45.18860000     -37.02870000     -71.21670000
S      -42.84460000     -30.46320000     -70.16870000
C      -44.06420000     -35.91160000     -72.06680000
H      -43.87550000     -35.04260000     -71.44570000
H      -43.10830000     -36.38290000     -72.07030000
C      -42.70280000     -30.99070000     -71.92510000
H      -41.60630000     -31.19000000     -72.13920000
H      -42.89370000     -30.06350000     -72.49320000
C      -43.47380000     -32.16580000     -72.49750000
H      -43.17730000     -32.24580000     -73.60620000
H      -43.05770000     -33.17680000     -72.09920000
C      -44.52310000     -35.31330000     -73.43460000
H      -44.75290000     -36.18180000     -74.10800000
H      -43.62640000     -34.79810000     -73.86340000
C      -45.76750000     -34.49000000     -73.26270000
C      -47.00890000     -35.04770000     -73.43830000
C      -45.88070000     -33.14030000     -72.69980000
H      -47.20750000     -36.07420000     -73.78400000
C      -47.22480000     -32.70220000     -72.68070000
C      -44.97080000     -32.07580000     -72.42520000
C      -45.66670000     -30.83560000     -72.32770000
S      -48.33430000     -33.95220000     -73.21910000
S      -47.46270000     -30.97020000     -72.37370000
H      -45.12070000     -29.89310000     -72.16860000
