40
Properties=species:S:1:pos:R:3 #=T CELL(abcABC):=T 1.889726e+02=T 90.00000=T Traj:=T positionsangstrom=T Step:=T 0=T Bead:=T pbc="F F F"
C      -44.75350000     -31.98930000     -68.88990000
C      -43.64370000     -32.69810000     -69.34210000
C      -43.64580000     -34.04980000     -69.40800000
C      -44.82670000     -34.80390000     -69.22490000
C      -45.95720000     -34.10640000     -68.84320000
C      -45.95360000     -32.72490000     -68.64180000
H      -44.67350000     -30.90920000     -68.81500000
H      -42.71560000     -34.52840000     -69.86330000
H      -46.89460000     -34.74800000     -68.70420000
H      -46.63380000     -32.18560000     -68.01680000
C      -44.89810000     -36.29780000     -69.34060000
H      -45.66550000     -36.66010000     -68.61490000
H      -43.89870000     -36.73930000     -69.26710000
C      -42.43350000     -31.90100000     -69.75460000
H      -42.11760000     -31.40270000     -68.86600000
H      -41.56600000     -32.57510000     -70.06570000
S      -45.52210000     -37.00900000     -70.98080000
S      -42.73350000     -30.60920000     -71.06720000
C      -44.43000000     -36.13300000     -72.11360000
H      -44.01370000     -35.25210000     -71.60910000
H      -43.54100000     -36.67750000     -72.48070000
C      -42.57230000     -31.48280000     -72.68040000
H      -41.55950000     -31.78620000     -72.78630000
H      -42.68560000     -30.73570000     -73.46750000
C      -43.59220000     -32.56460000     -73.04640000
H      -43.40250000     -32.65590000     -74.09970000
H      -43.29880000     -33.54710000     -72.66100000
C      -45.21680000     -35.72330000     -73.32760000
H      -45.74060000     -36.56050000     -73.87950000
H      -44.47620000     -35.27000000     -74.06090000
C      -46.31300000     -34.71830000     -72.95310000
C      -47.53280000     -35.12500000     -72.60600000
C      -46.06690000     -33.24190000     -72.67740000
H      -47.97070000     -36.17800000     -72.56960000
C      -47.33040000     -32.66630000     -72.32090000
C      -44.98860000     -32.27320000     -72.87870000
C      -45.49110000     -30.97340000     -72.72200000
S      -48.63530000     -33.81090000     -71.99180000
S      -47.15940000     -30.88410000     -72.15800000
H      -45.00220000     -30.04790000     -72.78470000
