40
Properties=species:S:1:pos:R:3 #=T CELL(abcABC):=T 1.889726e+02=T 90.00000=T Traj:=T positionsangstrom=T Step:=T 0=T Bead:=T pbc="F F F"
C      -44.90070000     -32.00400000     -68.94770000
C      -43.71620000     -32.70320000     -69.39930000
C      -43.75250000     -34.10560000     -69.45260000
C      -44.94250000     -34.77480000     -69.20650000
C      -46.10520000     -34.07010000     -68.77490000
C      -46.08230000     -32.68650000     -68.73180000
H      -44.82000000     -30.91590000     -68.97390000
H      -42.86980000     -34.70120000     -69.46720000
H      -46.94470000     -34.81930000     -68.66180000
H      -46.95010000     -32.04350000     -68.54450000
C      -44.88310000     -36.28910000     -69.25200000
H      -45.51920000     -36.78800000     -68.48990000
H      -43.87550000     -36.53570000     -68.90820000
C      -42.47910000     -31.97630000     -69.68310000
H      -42.15820000     -31.38030000     -68.77800000
H      -41.73550000     -32.65310000     -70.06190000
S      -45.25170000     -37.03640000     -70.91510000
S      -42.74930000     -30.75040000     -70.94370000
C      -44.29030000     -36.19540000     -72.30320000
H      -43.73790000     -35.38020000     -71.84480000
H      -43.64230000     -36.97820000     -72.74900000
C      -42.56020000     -31.57520000     -72.50760000
H      -41.55420000     -32.16760000     -72.41610000
H      -42.36840000     -30.77260000     -73.20300000
C      -43.63590000     -32.65360000     -72.96980000
H      -43.43320000     -32.80900000     -74.08940000
H      -43.57930000     -33.60190000     -72.35910000
C      -45.18270000     -35.59910000     -73.47330000
H      -45.57700000     -36.48230000     -73.97420000
H      -44.51810000     -35.16700000     -74.19380000
C      -46.32090000     -34.62870000     -73.00120000
C      -47.50050000     -35.05630000     -72.58920000
C      -46.15800000     -33.17820000     -72.74160000
H      -47.95010000     -36.03070000     -72.60910000
C      -47.32200000     -32.58870000     -72.36050000
C      -45.02400000     -32.26050000     -72.85980000
C      -45.41930000     -30.97810000     -72.57120000
S      -48.61850000     -33.69200000     -72.20800000
S      -47.18580000     -30.86630000     -72.13370000
H      -44.92220000     -30.00070000     -72.55970000
