40
Properties=species:S:1:pos:R:3 #=T CELL(abcABC):=T 1.889726e+02=T 90.00000=T Traj:=T positionsangstrom=T Step:=T 0=T Bead:=T pbc="F F F"
C      -45.21580000     -32.31270000     -68.61430000
C      -43.95480000     -32.96090000     -68.91520000
C      -43.95390000     -34.29410000     -69.15160000
C      -45.16850000     -35.09330000     -69.12190000
C      -46.32380000     -34.50510000     -68.68220000
C      -46.33210000     -33.05320000     -68.52470000
H      -45.25690000     -31.25460000     -68.35980000
H      -43.05150000     -34.82030000     -69.23860000
H      -47.26110000     -35.05150000     -68.52410000
H      -47.24960000     -32.51280000     -68.29830000
C      -45.11290000     -36.55460000     -69.44930000
H      -46.00350000     -37.02990000     -68.97870000
H      -44.26350000     -37.13560000     -69.10440000
C      -42.73280000     -32.08440000     -69.19240000
H      -42.31110000     -31.67470000     -68.28850000
H      -41.98940000     -32.66620000     -69.72350000
S      -45.33160000     -36.92270000     -71.24580000
S      -43.05920000     -30.53600000     -70.14520000
C      -43.96890000     -35.92540000     -72.01710000
H      -43.76510000     -35.15730000     -71.34880000
H      -43.01560000     -36.51440000     -72.22600000
C      -42.66480000     -31.01060000     -71.84140000
H      -41.62050000     -31.14840000     -71.90620000
H      -43.03190000     -30.18240000     -72.48960000
C      -43.46250000     -32.23110000     -72.43820000
H      -43.13260000     -32.26990000     -73.44890000
H      -43.21750000     -33.23690000     -72.04870000
C      -44.34930000     -35.24610000     -73.35050000
H      -44.51890000     -35.90930000     -74.14140000
H      -43.48730000     -34.69830000     -73.79930000
C      -45.68230000     -34.43690000     -73.32220000
C      -46.89700000     -35.04930000     -73.49870000
C      -45.85810000     -33.05180000     -73.01930000
H      -47.13200000     -35.99460000     -74.01440000
C      -47.18070000     -32.63500000     -72.95910000
C      -44.98120000     -32.06620000     -72.54330000
C      -45.69490000     -30.90890000     -72.20060000
S      -48.28710000     -33.87910000     -73.35990000
S      -47.42420000     -31.03260000     -72.31940000
H      -45.23600000     -30.01740000     -71.90080000
