40
Properties=species:S:1:pos:R:3 #=T CELL(abcABC):=T 1.889726e+02=T 90.00000=T Traj:=T positionsangstrom=T Step:=T 0=T Bead:=T pbc="F F F"
C      -45.21870000     -32.21120000     -68.91800000
C      -43.98720000     -32.76730000     -69.11820000
C      -43.93020000     -34.18420000     -69.20020000
C      -45.09010000     -35.02790000     -69.22660000
C      -46.34810000     -34.41130000     -68.95010000
C      -46.35730000     -33.04680000     -68.78580000
H      -45.22680000     -31.13490000     -68.72600000
H      -42.94950000     -34.66550000     -69.49250000
H      -47.31430000     -34.95810000     -69.03630000
H      -47.28280000     -32.59580000     -68.43440000
C      -44.88700000     -36.47510000     -69.43580000
H      -45.58070000     -37.08570000     -68.84850000
H      -43.81120000     -36.71550000     -69.16950000
C      -42.66410000     -32.02870000     -69.12660000
H      -42.42300000     -31.79720000     -68.13410000
H      -41.92020000     -32.67610000     -69.64480000
S      -45.11890000     -36.99730000     -71.24240000
S      -42.89360000     -30.47640000     -70.21330000
C      -43.97480000     -35.96940000     -72.27830000
H      -43.48850000     -35.20940000     -71.56950000
H      -43.22140000     -36.67750000     -72.65550000
C      -42.61340000     -31.11840000     -72.02630000
H      -41.57050000     -31.33240000     -72.12170000
H      -42.87150000     -30.25370000     -72.60320000
C      -43.48180000     -32.32530000     -72.32950000
H      -43.18840000     -32.81150000     -73.29370000
H      -43.20820000     -33.01780000     -71.58270000
C      -44.59370000     -35.29920000     -73.45750000
H      -44.82200000     -36.00740000     -74.28680000
H      -43.96980000     -34.55640000     -73.82680000
C      -45.93040000     -34.55090000     -73.18110000
C      -47.17420000     -35.10350000     -73.28450000
C      -45.96670000     -33.14130000     -72.71300000
H      -47.32310000     -36.13740000     -73.35940000
C      -47.30480000     -32.67530000     -72.72470000
C      -44.99240000     -32.12190000     -72.38770000
C      -45.62990000     -30.87460000     -72.22850000
S      -48.46560000     -33.90620000     -73.02110000
S      -47.40370000     -31.01340000     -72.36930000
H      -45.10230000     -29.95030000     -71.87020000
