40
Properties=species:S:1:pos:R:3 #=T CELL(abcABC):=T 1.889726e+02=T 90.00000=T Traj:=T positionsangstrom=T Step:=T 0=T Bead:=T pbc="F F F"
C      -45.90210000     -32.29690000     -68.87340000
C      -44.63010000     -32.75010000     -68.82460000
C      -44.37430000     -34.13470000     -68.96530000
C      -45.34100000     -35.04340000     -69.34110000
C      -46.68060000     -34.48950000     -69.50540000
C      -46.89140000     -33.15120000     -69.35340000
H      -46.19400000     -31.19030000     -68.92510000
H      -43.42940000     -34.68600000     -68.80600000
H      -47.47360000     -35.17060000     -69.87290000
H      -47.84010000     -32.71800000     -69.59550000
C      -45.06210000     -36.53410000     -69.55730000
H      -45.71200000     -37.11270000     -68.93510000
H      -44.09490000     -36.63770000     -69.14100000
C      -43.51990000     -31.71780000     -68.51130000
H      -43.56040000     -31.30220000     -67.56420000
H      -42.52440000     -32.13600000     -68.50690000
S      -45.09720000     -36.98400000     -71.37210000
S      -43.47530000     -30.26450000     -69.59950000
C      -43.58310000     -36.02260000     -72.01000000
H      -43.25730000     -35.33690000     -71.23400000
H      -42.61270000     -36.63610000     -72.16440000
C      -42.61230000     -31.02250000     -71.07870000
H      -41.62150000     -31.33940000     -70.86040000
H      -42.48620000     -30.16470000     -71.71580000
C      -43.34890000     -32.18660000     -71.91040000
H      -42.80470000     -32.16680000     -72.86510000
H      -43.23090000     -33.09760000     -71.40610000
C      -43.95660000     -35.29870000     -73.28870000
H      -44.08910000     -36.14100000     -74.04510000
H      -43.14330000     -34.62070000     -73.59260000
C      -45.27820000     -34.49220000     -73.24170000
C      -46.39850000     -35.11290000     -73.80030000
C      -45.56850000     -33.15200000     -72.79050000
H      -46.46520000     -36.08390000     -74.32340000
C      -46.92290000     -32.82080000     -72.96420000
C      -44.81660000     -32.09410000     -72.25750000
C      -45.59380000     -30.96760000     -72.02800000
S      -47.87520000     -34.00480000     -73.82450000
S      -47.29330000     -31.19000000     -72.55880000
H      -45.21370000     -29.98560000     -71.67090000
