40
Properties=species:S:1:pos:R:3 #=T CELL(abcABC):=T 1.889726e+02=T 90.00000=T Traj:=T positionsangstrom=T Step:=T 0=T Bead:=T pbc="F F F"
C      -45.88250000     -32.29030000     -68.93410000
C      -44.52950000     -32.81110000     -68.80700000
C      -44.23970000     -34.10530000     -68.99170000
C      -45.28060000     -35.06390000     -69.25250000
C      -46.55560000     -34.54090000     -69.43260000
C      -46.88840000     -33.13280000     -69.19560000
H      -46.24910000     -31.29730000     -68.54430000
H      -43.22420000     -34.44110000     -68.98360000
H      -47.39030000     -35.19860000     -69.67040000
H      -47.98030000     -32.89120000     -69.18090000
C      -44.95850000     -36.47820000     -69.49340000
H      -45.76040000     -37.09660000     -69.02370000
H      -43.97590000     -36.86570000     -69.23850000
C      -43.37520000     -31.85710000     -68.45230000
H      -43.65990000     -31.27290000     -67.52620000
H      -42.50620000     -32.53060000     -68.30520000
S      -45.15000000     -36.93580000     -71.29020000
S      -43.10620000     -30.41540000     -69.66850000
C      -43.86170000     -35.85820000     -71.99100000
H      -43.71080000     -35.08530000     -71.19080000
H      -42.91970000     -36.38160000     -72.05130000
C      -42.67990000     -31.13900000     -71.34860000
H      -41.58850000     -31.27890000     -71.38920000
H      -43.01290000     -30.29730000     -72.04410000
C      -43.42750000     -32.36990000     -71.87980000
H      -42.87410000     -32.79340000     -72.74570000
H      -43.40160000     -33.19950000     -71.09690000
C      -44.06540000     -35.18790000     -73.31630000
H      -43.92390000     -35.86250000     -74.17400000
H      -43.25480000     -34.51930000     -73.42710000
C      -45.36260000     -34.43780000     -73.42390000
C      -46.55220000     -34.97810000     -73.91750000
C      -45.67270000     -33.08680000     -72.91430000
H      -46.70370000     -35.93460000     -74.35240000
C      -47.04020000     -32.68090000     -73.06740000
C      -44.86380000     -32.17340000     -72.21240000
C      -45.60210000     -31.00200000     -71.98130000
S      -47.96190000     -34.01270000     -73.86750000
S      -47.34060000     -31.09630000     -72.43590000
H      -45.15860000     -30.16170000     -71.54170000
