40
Properties=species:S:1:pos:R:3 #=T CELL(abcABC):=T 1.889726e+02=T 90.00000=T Traj:=T positionsangstrom=T Step:=T 0=T Bead:=T pbc="F F F"
C      -45.44810000     -32.25120000     -68.60430000
C      -44.20750000     -32.75810000     -68.78940000
C      -44.07280000     -34.16490000     -69.05480000
C      -45.21700000     -34.98410000     -69.25280000
C      -46.50340000     -34.33300000     -69.26810000
C      -46.60310000     -33.00970000     -68.93740000
H      -45.60630000     -31.26280000     -68.29280000
H      -42.97720000     -34.47080000     -69.06100000
H      -47.39490000     -34.91290000     -69.47460000
H      -47.61940000     -32.61300000     -68.76400000
C      -45.11030000     -36.50360000     -69.50470000
H      -45.80140000     -37.01830000     -68.90300000
H      -44.10260000     -36.68540000     -69.16080000
C      -43.00320000     -31.93330000     -68.67890000
H      -42.96710000     -31.60600000     -67.60670000
H      -42.05150000     -32.47690000     -68.95500000
S      -45.22550000     -37.02610000     -71.27530000
S      -43.17010000     -30.47320000     -69.70970000
C      -43.91310000     -35.91490000     -72.07110000
H      -43.53400000     -35.17750000     -71.35710000
H      -42.99010000     -36.49210000     -72.11410000
C      -42.71110000     -31.09680000     -71.36070000
H      -41.61510000     -31.17800000     -71.56840000
H      -42.92070000     -30.30770000     -72.10090000
C      -43.39440000     -32.38530000     -71.83910000
H      -42.85370000     -32.47890000     -72.84110000
H      -43.17390000     -33.19560000     -71.12210000
C      -44.32690000     -35.34390000     -73.44130000
H      -44.49280000     -36.16790000     -74.15990000
H      -43.52920000     -34.66850000     -73.81500000
C      -45.62680000     -34.50320000     -73.50320000
C      -46.76940000     -34.90580000     -74.13080000
C      -45.78310000     -33.24710000     -72.83600000
H      -46.79840000     -35.86490000     -74.67550000
C      -47.03560000     -32.67570000     -73.04120000
C      -44.91300000     -32.29530000     -72.11490000
C      -45.61260000     -31.12290000     -71.95720000
S      -48.10820000     -33.78400000     -73.99160000
S      -47.32760000     -31.09930000     -72.33540000
H      -45.18450000     -30.19570000     -71.61650000
