40
Properties=species:S:1:pos:R:3 #=T CELL(abcABC):=T 1.889726e+02=T 90.00000=T Traj:=T positionsangstrom=T Step:=T 0=T Bead:=T pbc="F F F"
C      -45.67680000     -32.28540000     -68.91050000
C      -44.42460000     -32.80880000     -68.81160000
C      -44.21410000     -34.23300000     -68.86310000
C      -45.28950000     -35.05530000     -69.13620000
C      -46.60750000     -34.48510000     -69.28600000
C      -46.79190000     -33.12160000     -69.08090000
H      -45.73420000     -31.24980000     -69.01340000
H      -43.24240000     -34.64100000     -68.63430000
H      -47.51990000     -35.05310000     -69.56110000
H      -47.79390000     -32.60990000     -69.37420000
C      -45.07030000     -36.50760000     -69.42420000
H      -45.90660000     -37.09940000     -69.05380000
H      -44.15810000     -36.89830000     -68.90630000
C      -43.19110000     -31.98530000     -68.56880000
H      -43.20440000     -31.57010000     -67.56180000
H      -42.27840000     -32.48870000     -68.63150000
S      -45.04040000     -36.85120000     -71.28840000
S      -43.02990000     -30.45720000     -69.68290000
C      -43.84640000     -35.70260000     -72.07410000
H      -43.78640000     -34.73440000     -71.46130000
H      -42.92710000     -36.22420000     -72.13510000
C      -42.64500000     -31.04620000     -71.40350000
H      -41.55350000     -31.24280000     -71.38680000
H      -42.89210000     -30.23210000     -72.02820000
C      -43.34750000     -32.30840000     -71.86260000
H      -42.84560000     -32.76780000     -72.70140000
H      -43.21060000     -33.05690000     -71.09550000
C      -44.32360000     -35.38010000     -73.50240000
H      -44.53440000     -36.32750000     -73.99460000
H      -43.49250000     -34.89020000     -74.10640000
C      -45.58080000     -34.53050000     -73.46410000
C      -46.73360000     -35.03590000     -73.99620000
C      -45.74840000     -33.18070000     -72.83850000
H      -46.89530000     -36.02200000     -74.43000000
C      -46.99690000     -32.66290000     -73.07660000
C      -44.90680000     -32.22540000     -72.10270000
C      -45.63470000     -31.05590000     -71.88950000
S      -48.03740000     -33.83310000     -73.95800000
S      -47.37880000     -31.15530000     -72.42410000
H      -45.33570000     -30.22860000     -71.32300000
