40
Properties=species:S:1:pos:R:3 #=T CELL(abcABC):=T 1.889726e+02=T 90.00000=T Traj:=T positionsangstrom=T Step:=T 0=T Bead:=T pbc="F F F"
C      -45.43560000     -32.31650000     -68.44090000
C      -44.12500000     -32.83600000     -68.75140000
C      -43.99260000     -34.13400000     -69.06410000
C      -45.19110000     -35.01820000     -69.22550000
C      -46.40190000     -34.45170000     -69.05690000
C      -46.53580000     -33.06940000     -68.69930000
H      -45.47060000     -31.31220000     -68.01740000
H      -43.03790000     -34.63150000     -69.25260000
H      -47.31800000     -34.96090000     -69.25340000
H      -47.49280000     -32.65440000     -68.63140000
C      -45.03740000     -36.49920000     -69.55400000
H      -45.90860000     -37.08660000     -69.09540000
H      -44.12760000     -37.06770000     -69.28050000
C      -42.87470000     -31.94140000     -68.66840000
H      -42.93260000     -31.48320000     -67.68960000
H      -41.93590000     -32.48270000     -68.83830000
S      -45.41700000     -36.95730000     -71.37340000
S      -43.11630000     -30.46670000     -69.83360000
C      -43.96270000     -36.13300000     -72.12600000
H      -43.69810000     -35.38010000     -71.45040000
H      -43.15250000     -36.88450000     -72.35780000
C      -42.65290000     -31.16520000     -71.46380000
H      -41.59370000     -31.39760000     -71.43510000
H      -42.86470000     -30.34420000     -72.14240000
C      -43.45170000     -32.40740000     -71.90490000
H      -42.95220000     -32.63960000     -72.84700000
H      -43.22970000     -33.28170000     -71.27280000
C      -44.32300000     -35.39300000     -73.44620000
H      -44.43530000     -36.15690000     -74.25740000
H      -43.38840000     -34.95880000     -73.75020000
C      -45.60230000     -34.44330000     -73.44800000
C      -46.76920000     -34.95580000     -73.93830000
C      -45.74630000     -33.10960000     -72.94620000
H      -46.74640000     -35.89950000     -74.42470000
C      -47.10820000     -32.58820000     -73.10830000
C      -44.92000000     -32.16780000     -72.22180000
C      -45.61720000     -31.01700000     -71.93570000
S      -48.08690000     -33.78490000     -73.86830000
S      -47.40560000     -31.03120000     -72.38320000
H      -45.14610000     -30.08530000     -71.53110000
