40
Properties=species:S:1:pos:R:3 #=T CELL(abcABC):=T 1.889726e+02=T 90.00000=T Traj:=T positionsangstrom=T Step:=T 0=T Bead:=T pbc="F F F"
C      -42.67850000     -33.97920000     -74.03980000
C      -43.67380000     -34.94580000     -73.62020000
C      -44.96880000     -34.74810000     -74.06630000
C      -45.33190000     -33.59250000     -74.78270000
C      -44.42210000     -32.59450000     -75.12010000
C      -43.04680000     -32.82370000     -74.75510000
H      -41.61280000     -34.05770000     -73.85720000
H      -45.63820000     -35.55340000     -73.99210000
H      -44.84650000     -31.74690000     -75.58500000
H      -42.29660000     -32.15120000     -75.18120000
C      -46.77020000     -33.35780000     -75.14560000
H      -47.36680000     -34.29650000     -75.35650000
H      -46.84900000     -32.78220000     -76.00880000
C      -43.38610000     -36.09800000     -72.71870000
H      -44.30840000     -36.54730000     -72.43410000
H      -42.72380000     -36.77650000     -73.30230000
S      -47.72180000     -32.37690000     -73.89530000
S      -42.20090000     -35.63440000     -71.30470000
C      -48.23510000     -33.45190000     -72.48900000
H      -49.01430000     -32.82090000     -72.05530000
H      -48.58830000     -34.32010000     -73.05050000
C      -43.26350000     -34.48360000     -70.39960000
H      -43.80130000     -33.74020000     -71.04640000
H      -42.66040000     -33.97370000     -69.62830000
C      -44.52950000     -35.15610000     -69.69910000
H      -45.24080000     -35.37470000     -70.49620000
H      -44.36120000     -36.06740000     -69.17080000
C      -47.02410000     -33.75120000     -71.49000000
H      -46.15520000     -34.17780000     -71.98310000
H      -47.33950000     -34.57080000     -70.82570000
C      -46.63250000     -32.65380000     -70.54280000
C      -47.26100000     -31.46440000     -70.36980000
C      -45.98180000     -33.05050000     -69.33970000
H      -47.83610000     -30.90160000     -71.11820000
C      -46.08610000     -32.05810000     -68.34390000
C      -45.10860000     -34.09930000     -68.80760000
C      -44.63310000     -33.88920000     -67.52420000
S      -47.04270000     -30.69850000     -68.83710000
S      -45.22610000     -32.39430000     -66.87010000
H      -43.98930000     -34.59490000     -67.08430000
