40
Properties=species:S:1:pos:R:3 #=T CELL(abcABC):=T 1.889726e+02=T 90.00000=T Traj:=T positionsangstrom=T Step:=T 0=T Bead:=T pbc="F F F"
C      -46.40230000     -32.49360000     -69.40760000
C      -45.19240000     -32.80820000     -68.81930000
C      -44.88800000     -34.23420000     -68.91610000
C      -45.77560000     -35.17220000     -69.43790000
C      -46.94700000     -34.75840000     -70.04790000
C      -47.25830000     -33.38160000     -70.06510000
H      -46.79030000     -31.44940000     -69.46700000
H      -44.02730000     -34.51360000     -68.37780000
H      -47.54930000     -35.43900000     -70.62740000
H      -48.20310000     -32.91310000     -70.45590000
C      -45.41680000     -36.58870000     -69.55360000
H      -46.27790000     -37.25080000     -69.45110000
H      -44.76530000     -36.83550000     -68.75790000
C      -44.21590000     -31.88570000     -68.19810000
H      -44.53130000     -31.70820000     -67.10850000
H      -43.17270000     -32.33620000     -68.10530000
S      -44.56610000     -36.99550000     -71.19300000
S      -44.10030000     -30.27240000     -69.10040000
C      -43.30230000     -35.65500000     -71.36270000
H      -43.67900000     -34.89270000     -70.63390000
H      -42.34330000     -36.11020000     -71.24820000
C      -43.00010000     -30.42230000     -70.66070000
H      -41.97210000     -30.52090000     -70.43640000
H      -43.01110000     -29.39250000     -71.08880000
C      -43.28380000     -31.64490000     -71.69880000
H      -42.52950000     -31.47360000     -72.52240000
H      -43.02360000     -32.63850000     -71.29870000
C      -43.43320000     -35.00430000     -72.78600000
H      -43.29910000     -35.65320000     -73.64960000
H      -42.73850000     -34.17560000     -72.84790000
C      -44.79840000     -34.45370000     -73.00230000
C      -45.80110000     -35.23480000     -73.55590000
C      -45.24430000     -33.05750000     -72.88950000
H      -45.70720000     -36.30190000     -73.79160000
C      -46.53340000     -32.92120000     -73.33630000
C      -44.71460000     -31.80400000     -72.32030000
C      -45.62040000     -30.78820000     -72.42440000
S      -47.33030000     -34.39030000     -73.79330000
S      -47.13810000     -31.25120000     -73.29160000
H      -45.36440000     -29.76300000     -72.45830000
