40
Properties=species:S:1:pos:R:3 #=T CELL(abcABC):=T 1.889726e+02=T 90.00000=T Traj:=T positionsangstrom=T Step:=T 0=T Bead:=T pbc="F F F"
C      -46.34750000     -32.40770000     -69.35480000
C      -45.02660000     -32.79690000     -69.00850000
C      -44.80920000     -34.18760000     -69.07160000
C      -45.77380000     -35.15590000     -69.55050000
C      -47.05230000     -34.61680000     -69.94850000
C      -47.33530000     -33.28920000     -69.83520000
H      -46.63600000     -31.35320000     -69.18450000
H      -43.82380000     -34.61350000     -68.82640000
H      -47.79700000     -35.28140000     -70.35380000
H      -48.27680000     -32.91740000     -70.09820000
C      -45.48430000     -36.58560000     -69.55440000
H      -46.37920000     -37.13910000     -69.65710000
H      -44.96330000     -37.02100000     -68.72270000
C      -43.92890000     -31.84430000     -68.49940000
H      -44.03260000     -31.68760000     -67.38650000
H      -42.94790000     -32.34890000     -68.76640000
S      -44.52530000     -37.10730000     -71.05770000
S      -43.89820000     -30.21490000     -69.38160000
C      -43.28500000     -35.72280000     -71.39060000
H      -43.36850000     -35.04010000     -70.55940000
H      -42.29370000     -36.24490000     -71.50380000
C      -42.90070000     -30.63570000     -70.88350000
H      -41.86870000     -30.70140000     -70.50590000
H      -43.03490000     -29.78870000     -71.46080000
C      -43.23320000     -31.85360000     -71.72890000
H      -42.66200000     -31.84010000     -72.66850000
H      -42.97470000     -32.80130000     -71.21840000
C      -43.53540000     -35.03980000     -72.74340000
H      -43.27730000     -35.60140000     -73.60590000
H      -42.81140000     -34.26140000     -72.81600000
C      -44.96650000     -34.44680000     -72.90670000
C      -45.98590000     -35.22670000     -73.41700000
C      -45.37670000     -33.10680000     -72.72790000
H      -45.87530000     -36.26340000     -73.66400000
C      -46.68910000     -32.84430000     -73.20940000
C      -44.72930000     -31.90140000     -72.28640000
C      -45.65140000     -30.85750000     -72.25700000
S      -47.45580000     -34.28780000     -73.88930000
S      -47.16310000     -31.17410000     -73.07850000
H      -45.52790000     -29.93380000     -71.70910000
