40
Properties=species:S:1:pos:R:3 #=T CELL(abcABC):=T 1.889726e+02=T 90.00000=T Traj:=T positionsangstrom=T Step:=T 0=T Bead:=T pbc="F F F"
C      -44.49130000     -35.57650000     -71.94620000
C      -45.50440000     -35.22450000     -72.86970000
C      -46.82720000     -35.03540000     -72.39790000
C      -47.03810000     -35.18580000     -70.96650000
C      -46.03120000     -35.57030000     -70.06130000
C      -44.74940000     -35.76670000     -70.59270000
H      -43.45440000     -35.74430000     -72.20320000
H      -47.67220000     -34.75190000     -72.91150000
H      -46.21910000     -35.67810000     -69.02450000
H      -44.02880000     -36.14990000     -69.86560000
C      -48.39000000     -34.92500000     -70.44810000
H      -48.55440000     -35.48630000     -69.51500000
H      -49.15590000     -35.19600000     -71.22240000
C      -45.25130000     -34.97870000     -74.35470000
H      -44.72670000     -35.86670000     -74.73150000
H      -46.13620000     -34.86500000     -74.91630000
S      -48.70650000     -33.10400000     -69.90820000
S      -44.24110000     -33.44680000     -74.78510000
C      -47.91880000     -32.09360000     -71.21260000
H      -47.51390000     -32.75880000     -72.01880000
H      -48.77150000     -31.62250000     -71.75280000
C      -45.41010000     -32.07060000     -74.11950000
H      -46.26680000     -32.60860000     -73.57190000
H      -45.87120000     -31.44560000     -74.84970000
C      -44.50300000     -31.16060000     -73.25910000
H      -43.63500000     -30.68220000     -73.87170000
H      -45.21900000     -30.35170000     -72.82980000
C      -46.93510000     -31.08890000     -70.63840000
H      -47.35030000     -30.57330000     -69.78220000
H      -46.73120000     -30.36970000     -71.43230000
C      -45.77610000     -31.83210000     -70.03130000
C      -45.78870000     -32.45370000     -68.80000000
C      -44.44740000     -32.15670000     -70.73290000
H      -46.53960000     -32.51470000     -67.98870000
C      -43.61360000     -32.86160000     -69.85980000
C      -43.84630000     -31.80490000     -72.00430000
C      -42.68560000     -32.51920000     -72.13960000
S      -44.29910000     -33.18710000     -68.27910000
S      -42.15270000     -33.30390000     -70.69900000
H      -42.03590000     -32.53270000     -73.01180000
