40
Properties=species:S:1:pos:R:3 #=T CELL(abcABC):=T 1.889726e+02=T 90.00000=T Traj:=T positionsangstrom=T Step:=T 0=T Bead:=T pbc="F F F"
C      -44.52200000     -35.60740000     -72.04350000
C      -45.46510000     -35.14980000     -72.97930000
C      -46.86800000     -35.03210000     -72.61480000
C      -47.30200000     -35.21990000     -71.30210000
C      -46.30030000     -35.67930000     -70.33220000
C      -44.96910000     -35.80520000     -70.74510000
H      -43.46340000     -35.70610000     -72.26320000
H      -47.59470000     -34.72220000     -73.48390000
H      -46.63560000     -35.97420000     -69.26440000
H      -44.30040000     -36.14750000     -70.02110000
C      -48.61910000     -34.87800000     -70.82600000
H      -49.08900000     -35.70790000     -70.28480000
H      -49.37000000     -34.80010000     -71.56520000
C      -45.11570000     -34.98880000     -74.44510000
H      -44.37380000     -35.73030000     -74.68430000
H      -45.97930000     -35.21480000     -75.06520000
S      -48.65650000     -33.37480000     -69.75060000
S      -44.22890000     -33.40810000     -74.82320000
C      -48.02610000     -32.06540000     -70.95370000
H      -47.65790000     -32.67070000     -71.78890000
H      -48.92430000     -31.52100000     -71.29110000
C      -45.34930000     -32.23560000     -74.05180000
H      -45.95860000     -32.78280000     -73.29440000
H      -46.06100000     -31.77680000     -74.85370000
C      -44.64420000     -31.17760000     -73.12010000
H      -43.84430000     -30.53400000     -73.55110000
H      -45.22090000     -30.37290000     -72.60710000
C      -46.97170000     -31.16100000     -70.35110000
H      -47.35800000     -30.58950000     -69.47380000
H      -46.71250000     -30.44140000     -71.12070000
C      -45.74540000     -31.94720000     -69.91090000
C      -45.66280000     -32.40670000     -68.62570000
C      -44.46900000     -32.10950000     -70.62920000
H      -46.50820000     -32.25650000     -67.98290000
C      -43.54030000     -32.77190000     -69.84040000
C      -43.98420000     -31.91900000     -71.97450000
C      -42.66160000     -32.28080000     -72.10180000
S      -44.07250000     -33.10540000     -68.26440000
S      -42.02590000     -33.10390000     -70.67690000
H      -42.04190000     -32.27410000     -72.95880000
