40
Properties=species:S:1:pos:R:3 #=T CELL(abcABC):=T 1.889726e+02=T 90.00000=T Traj:=T positionsangstrom=T Step:=T 0=T Bead:=T pbc="F F F"
C      -42.67050000     -34.10870000     -74.10770000
C      -43.58500000     -35.02160000     -73.67170000
C      -44.94730000     -34.72960000     -73.94990000
C      -45.28490000     -33.57070000     -74.63920000
C      -44.36370000     -32.73010000     -75.20740000
C      -43.00200000     -33.00790000     -74.95310000
H      -41.65260000     -34.25290000     -73.84900000
H      -45.81960000     -35.36120000     -73.64060000
H      -44.72290000     -31.84190000     -75.77540000
H      -42.21580000     -32.28950000     -75.17050000
C      -46.74400000     -33.32810000     -75.03810000
H      -47.17060000     -34.38740000     -75.14690000
H      -46.72750000     -32.85750000     -76.04180000
C      -43.24230000     -36.16800000     -72.79180000
H      -44.06170000     -36.67370000     -72.28630000
H      -42.71140000     -36.96120000     -73.31820000
S      -47.84390000     -32.24950000     -73.97360000
S      -42.19090000     -35.70030000     -71.36470000
C      -48.12010000     -33.42700000     -72.60870000
H      -48.98410000     -33.15930000     -71.97530000
H      -48.31480000     -34.42580000     -72.94320000
C      -43.20390000     -34.52370000     -70.26870000
H      -43.21440000     -33.55020000     -70.75000000
H      -42.44680000     -34.49360000     -69.57530000
C      -44.48460000     -35.19350000     -69.62500000
H      -45.13690000     -35.44810000     -70.49910000
H      -44.20990000     -36.12920000     -69.10310000
C      -46.80280000     -33.59110000     -71.66770000
H      -45.85040000     -33.34070000     -72.23400000
H      -46.69570000     -34.59290000     -71.32830000
C      -46.84520000     -32.73110000     -70.39290000
C      -47.47620000     -31.53520000     -70.39220000
C      -46.14100000     -33.06680000     -69.16500000
H      -47.96460000     -31.17970000     -71.23220000
C      -46.12070000     -31.98620000     -68.30430000
C      -45.16260000     -34.10190000     -68.71280000
C      -44.78560000     -33.92480000     -67.39360000
S      -46.94210000     -30.55770000     -68.94630000
S      -45.31530000     -32.35880000     -66.77510000
H      -44.13380000     -34.54530000     -66.79300000
