40
Properties=species:S:1:pos:R:3 #=T CELL(abcABC):=T 1.889726e+02=T 90.00000=T Traj:=T positionsangstrom=T Step:=T 0=T Bead:=T pbc="F F F"
C      -45.42760000     -37.15240000     -73.54280000
C      -44.44800000     -36.50890000     -72.75810000
C      -43.92350000     -35.30080000     -73.15590000
C      -44.39960000     -34.71980000     -74.32730000
C      -45.41380000     -35.31580000     -75.12020000
C      -45.81230000     -36.59270000     -74.72530000
H      -45.80830000     -38.13880000     -73.28720000
H      -43.13100000     -34.75420000     -72.71730000
H      -45.56480000     -34.83920000     -76.08160000
H      -46.52900000     -37.10620000     -75.36260000
C      -43.74960000     -33.42250000     -74.69620000
H      -43.14270000     -33.53970000     -75.60270000
H      -42.93500000     -33.05750000     -73.95810000
C      -44.03880000     -37.18850000     -71.47440000
H      -43.90550000     -38.31300000     -71.51400000
H      -43.18620000     -36.68460000     -71.02900000
S      -44.90930000     -32.03340000     -74.99650000
S      -45.51420000     -37.10580000     -70.25920000
C      -45.67790000     -31.75580000     -73.33280000
H      -46.37160000     -30.90100000     -73.41190000
H      -46.33290000     -32.55470000     -72.98450000
C      -45.08030000     -35.68890000     -69.10640000
H      -44.18550000     -36.00740000     -68.56470000
H      -45.89340000     -35.56980000     -68.37160000
C      -44.72080000     -34.33460000     -69.82280000
H      -43.56620000     -34.12480000     -70.02930000
H      -45.17130000     -34.29040000     -70.82160000
C      -44.71520000     -31.51970000     -72.20450000
H      -44.06370000     -30.75380000     -72.46780000
H      -44.14450000     -32.53620000     -71.99640000
C      -45.47910000     -31.06490000     -71.01140000
C      -46.02430000     -29.74260000     -70.95820000
C      -45.54130000     -31.71530000     -69.70940000
H      -46.01120000     -29.11230000     -71.81240000
C      -46.06150000     -30.83620000     -68.71610000
C      -45.37580000     -33.09040000     -69.10190000
C      -45.69290000     -33.10230000     -67.78300000
S      -46.35120000     -29.26880000     -69.31090000
S      -46.24830000     -31.57480000     -67.14280000
H      -45.52730000     -33.83110000     -66.99040000
