40
Properties=species:S:1:pos:R:3 #=T CELL(abcABC):=T 1.889726e+02=T 90.00000=T Traj:=T positionsangstrom=T Step:=T 0=T Bead:=T pbc="F F F"
C      -46.87270000     -32.08230000     -69.86040000
C      -45.86860000     -32.41550000     -68.96470000
C      -45.74600000     -33.77350000     -68.60170000
C      -46.50580000     -34.78300000     -69.22690000
C      -47.33580000     -34.40460000     -70.29440000
C      -47.57760000     -33.02150000     -70.55380000
H      -47.01130000     -31.02590000     -70.00450000
H      -44.96070000     -34.12240000     -67.94090000
H      -47.96890000     -35.09100000     -70.94570000
H      -48.34020000     -32.78710000     -71.32070000
C      -46.26060000     -36.24460000     -68.92140000
H      -47.17410000     -36.81850000     -69.02270000
H      -45.86520000     -36.38020000     -67.89870000
C      -44.96260000     -31.39230000     -68.37280000
H      -45.42850000     -30.69470000     -67.57890000
H      -44.20360000     -31.89930000     -67.83790000
S      -45.07780000     -36.99020000     -70.20480000
S      -44.30990000     -30.11760000     -69.61920000
C      -43.78300000     -35.74800000     -70.51930000
H      -44.02080000     -34.68470000     -70.14270000
H      -42.94120000     -36.10120000     -69.87360000
C      -42.86310000     -30.87680000     -70.46640000
H      -42.15050000     -31.03940000     -69.61810000
H      -42.57970000     -30.17240000     -71.29280000
C      -42.99150000     -32.12810000     -71.39650000
H      -42.08290000     -32.13360000     -71.97110000
H      -42.99390000     -33.03190000     -70.66840000
C      -43.43650000     -35.48780000     -71.99500000
H      -43.21950000     -36.35840000     -72.55110000
H      -42.43120000     -35.05980000     -71.88110000
C      -44.47370000     -34.76610000     -72.82790000
C      -45.41400000     -35.49440000     -73.56150000
C      -44.76300000     -33.33390000     -72.85030000
H      -45.40870000     -36.57610000     -73.62220000
C      -45.89210000     -33.03720000     -73.64780000
C      -44.17410000     -32.12110000     -72.32310000
C      -44.88160000     -31.02070000     -72.76750000
S      -46.54110000     -34.50270000     -74.52030000
S      -46.32610000     -31.34660000     -73.70800000
H      -44.66860000     -29.98170000     -72.57180000
