40
Properties=species:S:1:pos:R:3 #=T CELL(abcABC):=T 1.889726e+02=T 90.00000=T Traj:=T positionsangstrom=T Step:=T 0=T Bead:=T pbc="F F F"
C      -44.40890000     -35.63790000     -72.52300000
C      -45.51990000     -35.11130000     -73.18270000
C      -46.78830000     -34.95090000     -72.49890000
C      -46.93630000     -35.22100000     -71.16200000
C      -45.73890000     -35.48190000     -70.42420000
C      -44.55400000     -35.81570000     -71.13090000
H      -43.40480000     -35.81930000     -72.99800000
H      -47.65280000     -34.61570000     -73.08830000
H      -45.84140000     -35.88890000     -69.42910000
H      -43.77940000     -36.35400000     -70.54310000
C      -48.28490000     -35.21180000     -70.46500000
H      -48.41690000     -36.14910000     -69.84920000
H      -49.18420000     -35.25760000     -71.06390000
C      -45.47100000     -34.78390000     -74.65770000
H      -44.83680000     -35.42610000     -75.29490000
H      -46.49560000     -34.77860000     -75.05870000
S      -48.42290000     -33.71040000     -69.38520000
S      -44.82610000     -33.02640000     -74.98440000
C      -48.02090000     -32.42810000     -70.60310000
H      -47.56150000     -32.86300000     -71.56530000
H      -48.92600000     -31.95920000     -71.05990000
C      -45.79450000     -32.15840000     -73.70170000
H      -46.16280000     -32.96320000     -72.99050000
H      -46.62370000     -31.60630000     -74.06310000
C      -44.97140000     -31.00960000     -72.98030000
H      -44.34420000     -30.48820000     -73.61100000
H      -45.70480000     -30.28310000     -72.60630000
C      -46.99540000     -31.39890000     -70.21800000
H      -47.41480000     -30.72960000     -69.47230000
H      -46.84580000     -30.74200000     -71.10740000
C      -45.66280000     -31.88740000     -69.77970000
C      -45.52840000     -32.48240000     -68.51330000
C      -44.41830000     -32.05600000     -70.61900000
H      -46.19470000     -32.31940000     -67.62340000
C      -43.44110000     -32.76770000     -69.96350000
C      -44.05450000     -31.66000000     -71.92120000
C      -42.79740000     -32.09370000     -72.18770000
S      -43.92770000     -33.19680000     -68.30850000
S      -42.09910000     -33.13420000     -70.98540000
H      -42.29020000     -31.89570000     -73.16740000
