40
Properties=species:S:1:pos:R:3 #=T CELL(abcABC):=T 1.889726e+02=T 90.00000=T Traj:=T positionsangstrom=T Step:=T 0=T Bead:=T pbc="F F F"
C      -46.85310000     -32.05410000     -69.99960000
C      -45.93200000     -32.37010000     -68.94080000
C      -45.72270000     -33.72060000     -68.59030000
C      -46.57780000     -34.73040000     -69.04480000
C      -47.53330000     -34.33780000     -69.99440000
C      -47.71650000     -33.01650000     -70.46310000
H      -46.99800000     -31.01610000     -70.31650000
H      -44.93290000     -34.05690000     -67.87180000
H      -47.98440000     -35.20760000     -70.45510000
H      -48.44380000     -32.84230000     -71.29030000
C      -46.16070000     -36.18940000     -68.91220000
H      -47.00190000     -36.91190000     -68.63830000
H      -45.46470000     -36.32670000     -68.14110000
C      -44.96630000     -31.32070000     -68.39690000
H      -45.46250000     -30.67060000     -67.71970000
H      -44.22010000     -31.93480000     -67.82060000
S      -45.28000000     -36.81260000     -70.39480000
S      -44.37940000     -30.12610000     -69.67940000
C      -43.83490000     -35.67470000     -70.48150000
H      -44.07530000     -34.62490000     -70.14770000
H      -42.97610000     -35.83140000     -69.84200000
C      -42.87390000     -30.84810000     -70.51950000
H      -42.09140000     -30.89600000     -69.86200000
H      -42.50930000     -30.05890000     -71.12320000
C      -43.00330000     -32.21480000     -71.25720000
H      -42.06390000     -32.31680000     -71.78050000
H      -43.16400000     -33.14650000     -70.73210000
C      -43.31020000     -35.47360000     -71.88080000
H      -42.93430000     -36.42310000     -72.37370000
H      -42.38860000     -34.86070000     -71.74000000
C      -44.35040000     -34.78450000     -72.82030000
C      -45.12530000     -35.55030000     -73.68600000
C      -44.71770000     -33.38390000     -72.90420000
H      -45.02130000     -36.59740000     -73.85740000
C      -45.81840000     -33.13400000     -73.67460000
C      -44.22780000     -32.16230000     -72.23480000
C      -44.95800000     -31.06400000     -72.59070000
S      -46.39990000     -34.59680000     -74.47590000
S      -46.26890000     -31.46660000     -73.80980000
H      -44.81680000     -30.01580000     -72.30070000
