40
Properties=species:S:1:pos:R:3 #=T CELL(abcABC):=T 1.889726e+02=T 90.00000=T Traj:=T positionsangstrom=T Step:=T 0=T Bead:=T pbc="F F F"
C      -42.68270000     -34.03610000     -74.07010000
C      -43.61250000     -35.04090000     -73.74330000
C      -44.92960000     -34.84190000     -74.19160000
C      -45.32380000     -33.74180000     -74.98890000
C      -44.29760000     -32.87990000     -75.43470000
C      -43.04430000     -32.96340000     -74.90080000
H      -41.67940000     -34.20090000     -73.63900000
H      -45.63020000     -35.67150000     -74.00430000
H      -44.55000000     -31.99020000     -75.95440000
H      -42.29060000     -32.23400000     -75.14450000
C      -46.73390000     -33.47960000     -75.20630000
H      -47.39270000     -34.36320000     -75.12600000
H      -46.93780000     -33.06070000     -76.23510000
C      -43.28860000     -36.28840000     -72.94200000
H      -44.14590000     -36.89720000     -72.77910000
H      -42.48840000     -36.82060000     -73.45380000
S      -47.46720000     -32.33210000     -73.96300000
S      -42.45280000     -35.92600000     -71.30060000
C      -47.78160000     -33.47540000     -72.58030000
H      -48.62890000     -33.19710000     -71.96250000
H      -47.91560000     -34.42540000     -73.09850000
C      -43.51420000     -34.52070000     -70.51840000
H      -43.97790000     -33.86150000     -71.24150000
H      -42.86100000     -33.88250000     -69.96010000
C      -44.48410000     -35.12000000     -69.48990000
H      -45.26540000     -35.69740000     -69.99530000
H      -43.98500000     -35.81430000     -68.78040000
C      -46.61420000     -33.49760000     -71.58440000
H      -45.71990000     -33.26040000     -72.11260000
H      -46.47320000     -34.47740000     -71.15700000
C      -46.68860000     -32.63620000     -70.37070000
C      -47.37980000     -31.47970000     -70.30200000
C      -45.94840000     -32.87550000     -69.10960000
H      -47.88860000     -31.03060000     -71.08300000
C      -46.14420000     -31.80010000     -68.26560000
C      -45.14370000     -33.96290000     -68.59260000
C      -44.78590000     -33.80250000     -67.27920000
S      -47.17390000     -30.54000000     -68.84290000
S      -45.41910000     -32.18700000     -66.67770000
H      -44.15230000     -34.43800000     -66.59330000
