40
Properties=species:S:1:pos:R:3 #=T CELL(abcABC):=T 1.889726e+02=T 90.00000=T Traj:=T positionsangstrom=T Step:=T 0=T Bead:=T pbc="F F F"
C      -44.78090000     -35.27590000     -72.64640000
C      -46.17170000     -35.12930000     -72.77000000
C      -46.99110000     -35.30680000     -71.69530000
C      -46.44560000     -35.46810000     -70.40210000
C      -45.05420000     -35.49690000     -70.25940000
C      -44.17950000     -35.44160000     -71.38480000
H      -44.13860000     -35.04400000     -73.50720000
H      -48.02940000     -35.24820000     -71.92430000
H      -44.76420000     -35.95510000     -69.25940000
H      -43.09060000     -35.51940000     -71.30760000
C      -47.27020000     -35.69200000     -69.18360000
H      -46.66120000     -36.31080000     -68.43300000
H      -48.10980000     -36.26120000     -69.51410000
C      -46.77580000     -34.93190000     -74.16500000
H      -46.51330000     -35.72430000     -74.92600000
H      -47.84790000     -34.88490000     -74.17870000
S      -47.68420000     -34.14270000     -68.35550000
S      -46.12460000     -33.35020000     -74.81720000
C      -47.78420000     -32.83690000     -69.68810000
H      -47.87200000     -33.20510000     -70.69420000
H      -48.71300000     -32.33040000     -69.47270000
C      -46.94730000     -32.07160000     -73.71850000
H      -47.43470000     -32.60680000     -72.91740000
H      -47.66950000     -31.43030000     -74.23060000
C      -46.01470000     -31.11590000     -73.04360000
H      -45.66210000     -30.15430000     -73.74090000
H      -46.46860000     -30.59850000     -72.23160000
C      -46.66960000     -31.79760000     -69.55710000
H      -46.67770000     -31.42370000     -68.49050000
H      -46.88240000     -30.90210000     -70.20610000
C      -45.20390000     -32.19430000     -69.77980000
C      -44.46820000     -32.48360000     -68.69430000
C      -44.46120000     -32.13280000     -71.05110000
H      -44.88110000     -32.61250000     -67.76660000
C      -43.15770000     -32.56740000     -70.87690000
C      -44.72220000     -31.72120000     -72.44270000
C      -43.56100000     -31.76080000     -73.25330000
S      -42.73440000     -32.69830000     -69.17170000
S      -42.15380000     -32.34730000     -72.27210000
H      -43.52080000     -31.64800000     -74.35050000
