40
Properties=species:S:1:pos:R:3 #=T CELL(abcABC):=T 1.889726e+02=T 90.00000=T Traj:=T positionsangstrom=T Step:=T 0=T Bead:=T pbc="F F F"
C      -45.30180000     -35.33330000     -72.99740000
C      -46.68930000     -35.18690000     -72.60530000
C      -46.98250000     -35.18680000     -71.23910000
C      -45.98590000     -35.47320000     -70.27510000
C      -44.64310000     -35.53540000     -70.64580000
C      -44.30750000     -35.45540000     -71.98130000
H      -45.01080000     -35.07550000     -73.97300000
H      -48.01740000     -35.17430000     -70.99850000
H      -43.89450000     -35.70260000     -69.77120000
H      -43.30730000     -35.47380000     -72.37590000
C      -46.33880000     -35.59800000     -68.83070000
H      -45.62870000     -36.28320000     -68.33860000
H      -47.32440000     -36.13230000     -68.74360000
C      -47.73190000     -34.73210000     -73.62510000
H      -47.72150000     -35.43800000     -74.48060000
H      -48.78780000     -34.89190000     -73.22080000
S      -46.40400000     -34.07320000     -67.76430000
S      -47.46770000     -33.01070000     -74.08650000
C      -46.96580000     -32.88850000     -69.07070000
H      -47.35120000     -33.49720000     -69.93390000
H      -47.94880000     -32.47060000     -68.78800000
C      -47.60890000     -31.99710000     -72.54540000
H      -47.55930000     -32.64460000     -71.68340000
H      -48.50000000     -31.38990000     -72.47830000
C      -46.40540000     -30.99760000     -72.57790000
H      -46.48140000     -30.40580000     -73.51480000
H      -46.57640000     -30.11520000     -71.89520000
C      -45.98170000     -31.76480000     -69.28990000
H      -45.77850000     -31.26610000     -68.30760000
H      -46.43000000     -30.95580000     -69.86080000
C      -44.65170000     -32.07020000     -69.86500000
C      -43.71100000     -32.68610000     -69.10070000
C      -44.37360000     -32.02000000     -71.26760000
H      -43.65210000     -32.88930000     -68.05420000
C      -43.06920000     -32.45160000     -71.52180000
C      -45.03030000     -31.52280000     -72.44990000
C      -44.33110000     -31.85200000     -73.57540000
S      -42.27190000     -33.13520000     -70.13450000
S      -42.77350000     -32.59170000     -73.25540000
H      -44.51500000     -31.41790000     -74.54970000
