40
Properties=species:S:1:pos:R:3 #=T CELL(abcABC):=T 1.889726e+02=T 90.00000=T Traj:=T positionsangstrom=T Step:=T 0=T Bead:=T pbc="F F F"
C      -42.63140000     -34.16300000     -74.21950000
C      -43.56520000     -35.14350000     -73.85790000
C      -44.86650000     -34.92180000     -74.31760000
C      -45.24690000     -33.71640000     -74.88040000
C      -44.27950000     -32.71740000     -75.08750000
C      -42.98580000     -32.95630000     -74.78650000
H      -41.60660000     -34.34420000     -73.81560000
H      -45.58230000     -35.61080000     -73.99400000
H      -44.64860000     -31.78640000     -75.50180000
H      -42.18180000     -32.22320000     -74.86260000
C      -46.65230000     -33.36860000     -75.28190000
H      -47.29260000     -34.23410000     -75.63360000
H      -46.52880000     -32.83680000     -76.19860000
C      -43.25740000     -36.32440000     -72.99200000
H      -44.19700000     -36.94710000     -72.90050000
H      -42.47070000     -37.04990000     -73.43540000
S      -47.41470000     -32.24740000     -74.05520000
S      -42.59050000     -36.07350000     -71.27970000
C      -47.83610000     -33.43110000     -72.60840000
H      -48.78570000     -33.02100000     -72.23560000
H      -48.05870000     -34.42070000     -72.99620000
C      -43.44500000     -34.66220000     -70.47950000
H      -43.73180000     -34.00310000     -71.27260000
H      -42.56090000     -34.14810000     -70.01620000
C      -44.50250000     -35.07740000     -69.39010000
H      -45.28760000     -35.65690000     -69.90140000
H      -43.87510000     -35.82000000     -68.71690000
C      -46.70780000     -33.56160000     -71.54800000
H      -45.66860000     -33.45250000     -72.07510000
H      -46.80270000     -34.56220000     -71.12220000
C      -46.59460000     -32.61700000     -70.44030000
C      -47.28870000     -31.44520000     -70.36770000
C      -45.96720000     -32.87360000     -69.12550000
H      -47.92520000     -31.14500000     -71.18780000
C      -46.26710000     -31.87280000     -68.20560000
C      -45.06100000     -33.87290000     -68.58980000
C      -44.60840000     -33.52580000     -67.32630000
S      -47.25880000     -30.58920000     -68.80870000
S      -45.50870000     -32.14540000     -66.66190000
H      -44.07170000     -34.10570000     -66.56110000
