40
Properties=species:S:1:pos:R:3 #=T CELL(abcABC):=T 1.889726e+02=T 90.00000=T Traj:=T positionsangstrom=T Step:=T 0=T Bead:=T pbc="F F F"
C      -46.87330000     -31.29430000     -70.26360000
C      -46.00470000     -31.65900000     -69.26330000
C      -45.96020000     -33.07480000     -68.79610000
C      -46.80830000     -33.97330000     -69.43930000
C      -47.70820000     -33.55750000     -70.47350000
C      -47.76560000     -32.23960000     -70.79800000
H      -46.85400000     -30.38860000     -70.77410000
H      -45.42560000     -33.49060000     -67.95000000
H      -48.30870000     -34.34590000     -70.84560000
H      -48.32180000     -31.81930000     -71.68830000
C      -46.85490000     -35.34870000     -68.83570000
H      -47.85390000     -35.76690000     -68.87500000
H      -46.54810000     -35.35630000     -67.82050000
C      -44.99090000     -30.65550000     -68.72210000
H      -45.45390000     -29.81280000     -68.12730000
H      -44.14320000     -31.06370000     -68.12740000
S      -45.83640000     -36.63090000     -69.70480000
S      -44.14930000     -29.70090000     -70.12890000
C      -44.23250000     -35.77850000     -69.83030000
H      -44.26510000     -34.74370000     -69.63320000
H      -43.57290000     -36.02320000     -69.03990000
C      -42.83910000     -30.97140000     -70.69560000
H      -41.93180000     -30.98450000     -70.07360000
H      -42.56910000     -30.58250000     -71.66330000
C      -43.31810000     -32.34420000     -70.94520000
H      -42.46670000     -33.02260000     -70.94020000
H      -43.94660000     -32.68850000     -70.13580000
C      -43.49170000     -35.94170000     -71.18360000
H      -43.43970000     -36.99220000     -71.36420000
H      -42.51800000     -35.55850000     -71.04720000
C      -44.29020000     -35.32230000     -72.38110000
C      -45.00740000     -36.14560000     -73.20050000
C      -44.56070000     -33.91290000     -72.63740000
H      -45.03110000     -37.21590000     -73.09550000
C      -45.38930000     -33.77380000     -73.76540000
C      -44.16110000     -32.57760000     -72.16320000
C      -44.67860000     -31.58220000     -72.95020000
S      -45.91410000     -35.31890000     -74.43040000
S      -45.81090000     -32.15960000     -74.17850000
H      -44.61650000     -30.53340000     -72.74980000
