40
Properties=species:S:1:pos:R:3 #=T CELL(abcABC):=T 1.889726e+02=T 90.00000=T Traj:=T positionsangstrom=T Step:=T 0=T Bead:=T pbc="F F F"
C      -46.75940000     -31.44780000     -70.78800000
C      -45.95350000     -31.74470000     -69.70460000
C      -46.08200000     -32.92750000     -69.00380000
C      -46.93710000     -33.92440000     -69.47120000
C      -47.74630000     -33.68580000     -70.65960000
C      -47.60800000     -32.45520000     -71.34610000
H      -46.63260000     -30.47680000     -71.38750000
H      -45.52950000     -33.03480000     -68.09510000
H      -48.65500000     -34.27900000     -71.03170000
H      -48.11260000     -32.34040000     -72.21160000
C      -47.06860000     -35.25410000     -68.81110000
H      -48.09170000     -35.72890000     -68.77900000
H      -46.94010000     -35.11340000     -67.75890000
C      -45.13290000     -30.64460000     -69.15460000
H      -45.72730000     -29.90130000     -68.52420000
H      -44.45950000     -31.04330000     -68.33690000
S      -45.93290000     -36.62160000     -69.44340000
S      -44.08460000     -29.72340000     -70.35560000
C      -44.26480000     -35.68080000     -69.48870000
H      -44.43520000     -34.61620000     -69.17200000
H      -43.53960000     -36.04460000     -68.69050000
C      -42.67340000     -30.81170000     -70.68280000
H      -41.90860000     -30.79380000     -69.84790000
H      -42.14670000     -30.37960000     -71.55540000
C      -43.03390000     -32.26070000     -71.02030000
H      -42.18910000     -32.86910000     -71.11710000
H      -43.50870000     -32.73020000     -70.16580000
C      -43.57140000     -35.76370000     -70.85550000
H      -43.25360000     -36.72750000     -71.07660000
H      -42.61100000     -35.25770000     -70.66460000
C      -44.40380000     -35.22680000     -72.02560000
C      -45.07730000     -36.13070000     -72.80280000
C      -44.57220000     -33.86100000     -72.51400000
H      -45.07810000     -37.15530000     -72.65090000
C      -45.44810000     -33.86010000     -73.62780000
C      -44.01710000     -32.58820000     -72.16600000
C      -44.47090000     -31.59050000     -73.00620000
S      -46.13270000     -35.39970000     -74.10870000
S      -45.60790000     -32.21950000     -74.24090000
H      -44.30720000     -30.51570000     -72.88960000
