40
Properties=species:S:1:pos:R:3 #=T CELL(abcABC):=T 1.889726e+02=T 90.00000=T Traj:=T positionsangstrom=T Step:=T 0=T Bead:=T pbc="F F F"
C      -45.28300000     -35.26610000     -72.91750000
C      -46.63990000     -35.07570000     -72.47410000
C      -46.93360000     -35.36200000     -71.17790000
C      -45.89170000     -35.64250000     -70.22420000
C      -44.61320000     -35.83940000     -70.64330000
C      -44.30120000     -35.66310000     -71.97990000
H      -45.16910000     -35.26020000     -74.03440000
H      -48.02070000     -35.19770000     -70.79380000
H      -43.77210000     -36.17620000     -69.92920000
H      -43.27050000     -35.66260000     -72.33440000
C      -46.23060000     -35.75350000     -68.78950000
H      -45.50330000     -36.42670000     -68.16380000
H      -47.09810000     -36.29300000     -68.59780000
C      -47.71630000     -34.61680000     -73.47690000
H      -47.80700000     -35.35370000     -74.24970000
H      -48.65130000     -34.46980000     -73.04010000
S      -46.11570000     -34.16600000     -67.82080000
S      -47.45720000     -32.90290000     -74.25410000
C      -46.93030000     -32.79160000     -68.76000000
H      -47.35120000     -33.15460000     -69.68650000
H      -47.64710000     -32.35970000     -68.09630000
C      -47.65120000     -31.85200000     -72.75730000
H      -47.94160000     -32.48500000     -71.92520000
H      -48.59120000     -31.30930000     -72.88520000
C      -46.49850000     -30.90550000     -72.47720000
H      -46.55280000     -30.08090000     -73.22550000
H      -46.68910000     -30.44410000     -71.50090000
C      -45.92820000     -31.62040000     -69.14230000
H      -45.65680000     -31.13980000     -68.20880000
H      -46.51640000     -30.81480000     -69.62790000
C      -44.72910000     -32.10250000     -69.86470000
C      -43.63630000     -32.56430000     -69.19630000
C      -44.48440000     -32.18670000     -71.30400000
H      -43.46540000     -32.63310000     -68.15680000
C      -43.24240000     -32.64750000     -71.63660000
C      -45.19910000     -31.59760000     -72.47700000
C      -44.36280000     -31.65880000     -73.54880000
S      -42.40820000     -33.09640000     -70.20290000
S      -42.88520000     -32.52230000     -73.25610000
H      -44.45910000     -31.17930000     -74.53220000
