40
Properties=species:S:1:pos:R:3 #=T CELL(abcABC):=T 1.889726e+02=T 90.00000=T Traj:=T positionsangstrom=T Step:=T 0=T Bead:=T pbc="F F F"
C      -45.07950000     -35.87700000     -73.09520000
C      -46.38130000     -35.30250000     -72.93410000
C      -46.87910000     -35.11110000     -71.64360000
C      -46.13040000     -35.39550000     -70.45040000
C      -44.85630000     -35.91670000     -70.66150000
C      -44.33590000     -36.11160000     -71.94000000
H      -44.56230000     -36.00600000     -74.02930000
H      -47.85020000     -34.68360000     -71.51780000
H      -44.25020000     -36.16960000     -69.80050000
H      -43.34450000     -36.47070000     -72.00440000
C      -46.82730000     -35.46910000     -69.06290000
H      -46.38590000     -36.26920000     -68.46180000
H      -47.86460000     -35.64280000     -69.23740000
C      -47.21220000     -34.89780000     -74.11790000
H      -46.95340000     -35.51510000     -74.97430000
H      -48.30250000     -35.01730000     -73.90630000
S      -46.72170000     -34.01590000     -67.98200000
S      -46.92710000     -33.11620000     -74.80720000
C      -47.27170000     -32.69470000     -69.19850000
H      -47.17190000     -33.05270000     -70.24250000
H      -48.29030000     -32.49870000     -68.93360000
C      -47.46340000     -32.04920000     -73.38260000
H      -47.71690000     -32.71140000     -72.59710000
H      -48.28390000     -31.38130000     -73.54600000
C      -46.22290000     -31.08870000     -72.90450000
H      -46.00150000     -30.38740000     -73.73720000
H      -46.63290000     -30.40840000     -72.22220000
C      -46.40660000     -31.47340000     -69.26860000
H      -46.45200000     -30.92360000     -68.28310000
H      -46.82750000     -30.80380000     -70.01300000
C      -45.04110000     -31.78330000     -69.67800000
C      -44.09150000     -32.10110000     -68.66480000
C      -44.46250000     -32.00690000     -71.01590000
H      -44.11100000     -32.03830000     -67.57780000
C      -43.13140000     -32.35970000     -70.96420000
C      -44.95500000     -31.85270000     -72.38130000
C      -43.99390000     -32.23690000     -73.28900000
S      -42.56950000     -32.62040000     -69.35520000
S      -42.44310000     -32.66090000     -72.50840000
H      -44.07810000     -32.25430000     -74.41860000
