40
Properties=species:S:1:pos:R:3 #=T CELL(abcABC):=T 1.889726e+02=T 90.00000=T Traj:=T positionsangstrom=T Step:=T 0=T Bead:=T pbc="F F F"
C      -45.19080000     -35.27540000     -72.90230000
C      -46.63350000     -35.28930000     -72.84390000
C      -47.29980000     -35.41080000     -71.62860000
C      -46.57770000     -35.59730000     -70.44760000
C      -45.17030000     -35.84220000     -70.52700000
C      -44.49900000     -35.66130000     -71.76780000
H      -44.50780000     -35.12690000     -73.77930000
H      -48.39890000     -35.45290000     -71.64090000
H      -44.58440000     -36.02360000     -69.64820000
H      -43.43470000     -35.76970000     -71.81810000
C      -47.20380000     -35.50420000     -69.08780000
H      -46.86750000     -36.33660000     -68.53670000
H      -48.27120000     -35.37860000     -69.24270000
C      -47.32970000     -34.87790000     -74.12260000
H      -47.04270000     -35.44010000     -75.01020000
H      -48.39440000     -34.99240000     -74.02200000
S      -46.64890000     -34.02490000     -68.18070000
S      -46.86110000     -33.10020000     -74.51210000
C      -47.04960000     -32.64760000     -69.30380000
H      -47.04850000     -33.04360000     -70.32940000
H      -48.00900000     -32.14650000     -69.00310000
C      -47.40970000     -32.17540000     -73.08040000
H      -47.76590000     -32.80930000     -72.27070000
H      -48.36970000     -31.70430000     -73.43290000
C      -46.33450000     -31.16130000     -72.68450000
H      -46.19000000     -30.44790000     -73.48730000
H      -46.72100000     -30.64180000     -71.73700000
C      -46.04960000     -31.39210000     -69.17740000
H      -46.10270000     -30.98900000     -68.18830000
H      -46.54850000     -30.57360000     -69.75770000
C      -44.66640000     -31.77770000     -69.62490000
C      -43.67880000     -32.12390000     -68.70790000
C      -44.27320000     -31.98300000     -70.98250000
H      -43.69390000     -32.04110000     -67.61440000
C      -42.99290000     -32.48630000     -71.11420000
C      -44.96080000     -31.72460000     -72.29870000
C      -44.20850000     -32.24500000     -73.30700000
S      -42.25670000     -32.74580000     -69.61540000
S      -42.56570000     -32.78500000     -72.78740000
H      -44.22170000     -32.18330000     -74.34750000
