40
Properties=species:S:1:pos:R:3 #=T CELL(abcABC):=T 1.889726e+02=T 90.00000=T Traj:=T positionsangstrom=T Step:=T 0=T Bead:=T pbc="F F F"
C      -47.10500000     -31.67270000     -71.02280000
C      -46.35290000     -31.47430000     -69.85810000
C      -46.23580000     -32.45910000     -68.93330000
C      -46.80930000     -33.69090000     -69.18160000
C      -47.61480000     -33.91250000     -70.30910000
C      -47.77330000     -32.87150000     -71.25580000
H      -47.23750000     -30.84970000     -71.81070000
H      -45.67210000     -32.25990000     -68.04190000
H      -48.10680000     -34.88660000     -70.56480000
H      -48.33910000     -33.10060000     -72.16210000
C      -46.68460000     -34.85320000     -68.25400000
H      -47.62450000     -35.24190000     -67.87130000
H      -46.21430000     -34.54550000     -67.36200000
C      -45.70170000     -30.14030000     -69.70680000
H      -46.43480000     -29.32670000     -69.84570000
H      -45.36930000     -29.96140000     -68.65490000
S      -45.78710000     -36.26600000     -68.92720000
S      -44.31380000     -29.74880000     -70.95870000
C      -44.08620000     -35.67650000     -69.30860000
H      -43.87010000     -34.60850000     -68.87460000
H      -43.57030000     -36.36420000     -68.65250000
C      -42.85790000     -30.97970000     -70.57830000
H      -42.39750000     -30.72440000     -69.54860000
H      -42.12750000     -30.60200000     -71.30110000
C      -43.04870000     -32.45130000     -70.94560000
H      -42.10280000     -33.00810000     -70.97180000
H      -43.52090000     -32.89060000     -70.04510000
C      -43.68200000     -35.83840000     -70.78980000
H      -43.58080000     -36.85560000     -70.92380000
H      -42.64880000     -35.47830000     -70.90800000
C      -44.61180000     -35.25940000     -71.90000000
C      -45.43970000     -36.19270000     -72.56360000
C      -44.57610000     -33.97980000     -72.51970000
H      -45.75590000     -37.18610000     -72.27970000
C      -45.26400000     -34.00840000     -73.74550000
C      -43.85760000     -32.75960000     -72.21630000
C      -44.02900000     -31.87510000     -73.26650000
S      -46.20370000     -35.45850000     -74.02480000
S      -45.07650000     -32.41040000     -74.55210000
H      -43.70370000     -30.85420000     -73.35360000
