40
Properties=species:S:1:pos:R:3 #=T CELL(abcABC):=T 1.889726e+02=T 90.00000=T Traj:=T positionsangstrom=T Step:=T 0=T Bead:=T pbc="F F F"
C      -46.61450000     -30.89390000     -71.38600000
C      -45.85000000     -30.89820000     -70.18570000
C      -46.20570000     -31.80170000     -69.17830000
C      -47.17240000     -32.83770000     -69.44640000
C      -47.84160000     -32.87730000     -70.66440000
C      -47.58240000     -31.86290000     -71.56950000
H      -46.50200000     -30.13330000     -72.14160000
H      -45.77340000     -31.91500000     -68.18640000
H      -48.51380000     -33.67480000     -70.97160000
H      -48.13080000     -31.82820000     -72.47700000
C      -47.32060000     -33.99370000     -68.49950000
H      -48.38460000     -34.30660000     -68.38000000
H      -46.89500000     -33.83340000     -67.58000000
C      -44.68300000     -29.94560000     -69.98310000
H      -44.94680000     -28.84210000     -69.95760000
H      -44.21310000     -30.04090000     -68.97130000
S      -46.50760000     -35.59190000     -69.05740000
S      -43.33990000     -29.91010000     -71.28220000
C      -44.71240000     -35.27210000     -68.99220000
H      -44.35820000     -34.22590000     -68.96980000
H      -44.41290000     -35.62810000     -68.06120000
C      -42.28980000     -31.45970000     -71.17400000
H      -41.51230000     -31.34520000     -70.41690000
H      -41.92280000     -31.39500000     -72.19090000
C      -43.11880000     -32.76000000     -70.97060000
H      -42.41830000     -33.54090000     -70.80880000
H      -43.70390000     -32.77610000     -70.06150000
C      -43.95920000     -35.99520000     -70.15230000
H      -43.92930000     -37.01250000     -69.92690000
H      -42.91880000     -35.67340000     -70.09360000
C      -44.58530000     -35.78260000     -71.49730000
C      -45.42270000     -36.74560000     -72.05610000
C      -44.54580000     -34.49410000     -72.24530000
H      -45.76130000     -37.66350000     -71.54310000
C      -45.34580000     -34.65690000     -73.42530000
C      -43.95570000     -33.17730000     -72.12260000
C      -44.34860000     -32.35970000     -73.16680000
S      -46.07270000     -36.20520000     -73.60870000
S      -45.52470000     -33.14270000     -74.34720000
H      -44.04540000     -31.35370000     -73.46690000
