40
Properties=species:S:1:pos:R:3 #=T CELL(abcABC):=T 1.889726e+02=T 90.00000=T Traj:=T positionsangstrom=T Step:=T 0=T Bead:=T pbc="F F F"
C      -46.79940000     -30.78220000     -71.39340000
C      -45.90530000     -30.85230000     -70.28800000
C      -45.99720000     -32.00200000     -69.44430000
C      -46.99740000     -32.96200000     -69.62310000
C      -47.87680000     -32.87280000     -70.74420000
C      -47.70140000     -31.80250000     -71.59750000
H      -46.77000000     -29.98590000     -72.08850000
H      -45.35350000     -32.04170000     -68.52190000
H      -48.66830000     -33.57410000     -70.75520000
H      -48.42290000     -31.71470000     -72.40410000
C      -47.07220000     -34.02740000     -68.52050000
H      -48.13460000     -34.33330000     -68.34400000
H      -46.56740000     -33.70360000     -67.57920000
C      -44.85470000     -29.83700000     -69.94660000
H      -45.32040000     -28.89540000     -70.02920000
H      -44.50070000     -30.01090000     -68.93450000
S      -46.38140000     -35.68380000     -69.05260000
S      -43.49180000     -29.82740000     -71.13550000
C      -44.56590000     -35.37590000     -68.96970000
H      -44.38830000     -34.27410000     -69.00350000
H      -44.08750000     -35.85360000     -68.03450000
C      -42.49200000     -31.34020000     -71.02020000
H      -41.87320000     -31.27130000     -70.08530000
H      -41.80880000     -31.35160000     -71.85270000
C      -43.13210000     -32.72100000     -70.87660000
H      -42.35290000     -33.49760000     -70.64890000
H      -43.84000000     -32.68030000     -69.97480000
C      -43.88140000     -36.02090000     -70.20140000
H      -43.76780000     -37.11420000     -70.09600000
H      -42.86690000     -35.59460000     -70.19560000
C      -44.60070000     -35.75840000     -71.52480000
C      -45.29790000     -36.81480000     -72.15430000
C      -44.66280000     -34.48610000     -72.22630000
H      -45.32380000     -37.81430000     -71.82460000
C      -45.51000000     -34.60140000     -73.37100000
C      -44.00750000     -33.18380000     -72.03190000
C      -44.28790000     -32.42980000     -73.16920000
S      -46.20430000     -36.18190000     -73.56810000
S      -45.34410000     -33.13840000     -74.40950000
H      -43.98680000     -31.39150000     -73.34360000
