40
Properties=species:S:1:pos:R:3 #=T CELL(abcABC):=T 1.889726e+02=T 90.00000=T Traj:=T positionsangstrom=T Step:=T 0=T Bead:=T pbc="F F F"
C      -45.58360000     -35.49610000     -73.25350000
C      -46.84240000     -35.65500000     -72.61490000
C      -46.83750000     -36.07780000     -71.25250000
C      -45.62670000     -36.15140000     -70.50600000
C      -44.41580000     -35.89470000     -71.12550000
C      -44.43220000     -35.65900000     -72.52430000
H      -45.52840000     -35.24380000     -74.33110000
H      -47.78710000     -36.08220000     -70.78720000
H      -43.46390000     -36.00210000     -70.67290000
H      -43.46210000     -35.56610000     -73.02000000
C      -45.76980000     -36.29810000     -68.95610000
H      -45.23990000     -37.08540000     -68.51070000
H      -46.80110000     -36.53900000     -68.80230000
C      -48.05830000     -35.28170000     -73.38940000
H      -48.18770000     -35.79160000     -74.42210000
H      -48.93400000     -35.54260000     -72.73040000
S      -45.24560000     -34.83120000     -68.00780000
S      -47.91310000     -33.48460000     -73.56840000
C      -46.06860000     -33.39780000     -68.74430000
H      -46.14630000     -33.57140000     -69.79380000
H      -47.08420000     -33.24530000     -68.30650000
C      -47.87300000     -32.93910000     -71.83450000
H      -47.29730000     -33.65910000     -71.20910000
H      -48.82620000     -32.87600000     -71.48690000
C      -47.29890000     -31.60920000     -71.45080000
H      -47.84690000     -30.77970000     -71.88180000
H      -47.35210000     -31.62630000     -70.39650000
C      -45.21460000     -32.12850000     -68.59580000
H      -44.60550000     -32.02640000     -67.67710000
H      -45.82610000     -31.21110000     -68.48650000
C      -44.31230000     -32.01760000     -69.73490000
C      -42.97460000     -32.17930000     -69.57080000
C      -44.59740000     -31.73520000     -71.11520000
H      -42.43210000     -32.44860000     -68.70930000
C      -43.43580000     -31.46440000     -71.93620000
C      -45.75030000     -31.46590000     -71.89330000
C      -45.43210000     -31.01450000     -73.15270000
S      -41.98110000     -31.91850000     -71.01890000
S      -43.66820000     -30.90980000     -73.51040000
H      -46.19460000     -30.69540000     -73.84520000
