40
Properties=species:S:1:pos:R:3 #=T CELL(abcABC):=T 1.889726e+02=T 90.00000=T Traj:=T positionsangstrom=T Step:=T 0=T Bead:=T pbc="F F F"
C      -46.44660000     -31.06220000     -71.32150000
C      -45.66040000     -30.97140000     -70.18550000
C      -45.89270000     -31.81000000     -69.12040000
C      -46.94860000     -32.78750000     -69.13030000
C      -47.79790000     -32.73550000     -70.29290000
C      -47.54270000     -31.91110000     -71.35750000
H      -46.06330000     -30.46780000     -72.18120000
H      -45.39180000     -31.76740000     -68.22240000
H      -48.70090000     -33.41160000     -70.39110000
H      -48.12950000     -32.02490000     -72.27960000
C      -47.06150000     -33.83950000     -68.09800000
H      -48.05800000     -33.83130000     -67.67440000
H      -46.29810000     -33.75310000     -67.38390000
C      -44.48680000     -30.06830000     -70.06420000
H      -44.93320000     -29.04960000     -70.09250000
H      -44.01420000     -30.25610000     -69.16050000
S      -46.86690000     -35.52110000     -68.87680000
S      -43.17060000     -30.24140000     -71.36100000
C      -44.98280000     -35.56510000     -69.13820000
H      -44.66490000     -34.44960000     -69.09360000
H      -44.67170000     -36.19700000     -68.33780000
C      -42.16380000     -31.72990000     -70.95920000
H      -41.46950000     -31.62770000     -70.04770000
H      -41.55450000     -31.84450000     -71.89090000
C      -43.05340000     -33.03060000     -70.80900000
H      -42.30670000     -33.81780000     -70.68900000
H      -43.74830000     -33.06730000     -69.95670000
C      -44.49780000     -36.24550000     -70.38160000
H      -44.66090000     -37.32100000     -70.27980000
H      -43.41550000     -36.21110000     -70.26550000
C      -44.97750000     -35.73680000     -71.68550000
C      -45.86910000     -36.47070000     -72.42440000
C      -44.88570000     -34.36980000     -72.24260000
H      -46.12010000     -37.53710000     -72.26030000
C      -45.54240000     -34.30330000     -73.47690000
C      -43.80990000     -33.30620000     -72.07400000
C      -43.85660000     -32.55370000     -73.22300000
S      -46.42400000     -35.70520000     -73.90930000
S      -45.04110000     -33.02880000     -74.44030000
H      -43.23960000     -31.66090000     -73.42190000
