40
Properties=species:S:1:pos:R:3 #=T CELL(abcABC):=T 1.889726e+02=T 90.00000=T Traj:=T positionsangstrom=T Step:=T 0=T Bead:=T pbc="F F F"
C      -46.42150000     -30.77720000     -71.07030000
C      -45.65880000     -30.95770000     -69.92050000
C      -46.03240000     -31.99780000     -69.02400000
C      -47.02870000     -32.88630000     -69.30610000
C      -47.65840000     -32.74620000     -70.56630000
C      -47.40380000     -31.67630000     -71.46090000
H      -46.07770000     -29.92170000     -71.66970000
H      -45.53900000     -32.13330000     -68.03880000
H      -48.36790000     -33.50390000     -70.84190000
H      -47.99870000     -31.60850000     -72.34970000
C      -47.34630000     -33.92870000     -68.26710000
H      -48.45900000     -34.09220000     -68.23010000
H      -46.93970000     -33.72830000     -67.26360000
C      -44.46730000     -30.12360000     -69.58530000
H      -44.62390000     -29.09900000     -69.32130000
H      -43.89750000     -30.53430000     -68.74290000
S      -46.68750000     -35.61610000     -68.74630000
S      -43.31230000     -30.06630000     -71.11890000
C      -44.92660000     -35.24580000     -68.96660000
H      -44.85980000     -34.21630000     -68.99820000
H      -44.33560000     -35.66860000     -68.08420000
C      -42.31860000     -31.66630000     -71.14430000
H      -41.62200000     -31.60580000     -70.30910000
H      -41.78980000     -31.65830000     -72.11420000
C      -43.20630000     -32.95750000     -71.03490000
H      -42.54030000     -33.85040000     -70.86740000
H      -43.90620000     -32.94030000     -70.16550000
C      -44.35620000     -35.91610000     -70.24600000
H      -44.65250000     -36.92810000     -70.19010000
H      -43.28280000     -35.72040000     -70.24310000
C      -45.02560000     -35.56330000     -71.59350000
C      -45.95820000     -36.37600000     -72.16610000
C      -44.66050000     -34.47910000     -72.50350000
H      -46.42440000     -37.21210000     -71.64510000
C      -45.25400000     -34.61360000     -73.75870000
C      -43.99020000     -33.23170000     -72.32120000
C      -44.00720000     -32.51100000     -73.53220000
S      -46.45340000     -35.90010000     -73.77270000
S      -44.91620000     -33.30210000     -74.79630000
H      -43.44910000     -31.57050000     -73.67450000
