40
Properties=species:S:1:pos:R:3 #=T CELL(abcABC):=T 1.889726e+02=T 90.00000=T Traj:=T positionsangstrom=T Step:=T 0=T Bead:=T pbc="F F F"
C      -45.54160000     -35.57900000     -73.16810000
C      -46.71170000     -35.53650000     -72.41580000
C      -46.60950000     -35.80160000     -71.03350000
C      -45.39800000     -35.99590000     -70.36840000
C      -44.19930000     -35.95750000     -71.13390000
C      -44.27410000     -35.84500000     -72.51210000
H      -45.53510000     -35.33110000     -74.24410000
H      -47.53130000     -35.91430000     -70.47820000
H      -43.21940000     -36.20040000     -70.67630000
H      -43.43540000     -36.10650000     -73.10400000
C      -45.25320000     -36.22120000     -68.86370000
H      -44.46150000     -36.88190000     -68.54700000
H      -46.20510000     -36.67060000     -68.49440000
C      -48.07700000     -35.03410000     -72.96460000
H      -48.20950000     -35.65390000     -73.83200000
H      -48.97960000     -35.07630000     -72.37350000
S      -44.90120000     -34.63300000     -67.92510000
S      -47.90460000     -33.23540000     -73.43700000
C      -46.31440000     -33.53720000     -68.54700000
H      -46.73580000     -33.99870000     -69.40220000
H      -47.03920000     -33.69780000     -67.72760000
C      -48.06740000     -32.31660000     -71.84020000
H      -47.55500000     -32.87240000     -71.05230000
H      -49.12290000     -32.05920000     -71.50000000
C      -47.25710000     -30.97770000     -71.91940000
H      -47.71430000     -30.44850000     -72.79100000
H      -47.24270000     -30.48080000     -70.91090000
C      -45.81510000     -32.12090000     -68.82460000
H      -45.49000000     -31.61830000     -67.94560000
H      -46.54220000     -31.47450000     -69.21070000
C      -44.64940000     -32.04540000     -69.86490000
C      -43.32200000     -32.32980000     -69.57880000
C      -44.71560000     -31.72260000     -71.31700000
H      -43.07480000     -32.41550000     -68.54100000
C      -43.54680000     -31.95670000     -71.94460000
C      -45.79400000     -31.24710000     -72.30370000
C      -45.30770000     -30.97500000     -73.50410000
S      -42.26900000     -32.42300000     -70.90500000
S      -43.58050000     -31.40200000     -73.66480000
H      -45.84130000     -30.69880000     -74.35330000
