40
Properties=species:S:1:pos:R:3 #=T CELL(abcABC):=T 1.889726e+02=T 90.00000=T Traj:=T positionsangstrom=T Step:=T 0=T Bead:=T pbc="F F F"
C      -45.09020000     -35.01490000     -73.15480000
C      -46.37840000     -35.26600000     -72.66300000
C      -46.60550000     -35.53660000     -71.30140000
C      -45.48570000     -35.61600000     -70.36720000
C      -44.20930000     -35.33400000     -70.86610000
C      -44.02930000     -34.98700000     -72.23600000
H      -45.13120000     -34.80940000     -74.20510000
H      -47.68160000     -35.65270000     -71.02380000
H      -43.25400000     -35.53490000     -70.30590000
H      -43.04230000     -34.79500000     -72.58840000
C      -45.79120000     -35.94540000     -68.94910000
H      -45.31280000     -36.80150000     -68.53920000
H      -46.88140000     -35.99120000     -68.88200000
C      -47.57590000     -35.10220000     -73.53200000
H      -47.28190000     -35.29630000     -74.57990000
H      -48.43430000     -35.81680000     -73.30510000
S      -45.23000000     -34.68950000     -67.78020000
S      -48.47840000     -33.43400000     -73.41530000
C      -46.24190000     -33.27330000     -68.28460000
H      -46.91330000     -33.70130000     -69.01400000
H      -46.92410000     -33.04710000     -67.46270000
C      -47.97460000     -32.66910000     -71.84410000
H      -47.25540000     -33.41130000     -71.43040000
H      -48.81150000     -32.43180000     -71.20690000
C      -47.23340000     -31.31240000     -71.79820000
H      -47.70890000     -30.58800000     -72.49090000
H      -47.26220000     -30.90990000     -70.76610000
C      -45.49170000     -32.03530000     -68.73260000
H      -44.99720000     -31.62470000     -67.90730000
H      -46.23780000     -31.31840000     -69.03620000
C      -44.41100000     -32.07710000     -69.80620000
C      -43.08730000     -32.43610000     -69.57630000
C      -44.66640000     -31.79620000     -71.24750000
H      -42.62180000     -32.75120000     -68.66390000
C      -43.46180000     -32.07030000     -72.04120000
C      -45.76730000     -31.48100000     -72.17290000
C      -45.41450000     -31.52230000     -73.51050000
S      -42.11620000     -32.43300000     -70.96080000
S      -43.62340000     -31.83630000     -73.76670000
H      -46.06610000     -31.41310000     -74.30400000
