40
Properties=species:S:1:pos:R:3 #=T CELL(abcABC):=T 1.889726e+02=T 90.00000=T Traj:=T positionsangstrom=T Step:=T 0=T Bead:=T pbc="F F F"
C      -45.14570000     -35.25610000     -73.15300000
C      -46.37270000     -35.20000000     -72.44680000
C      -46.43590000     -35.55250000     -71.06980000
C      -45.28220000     -35.84020000     -70.34540000
C      -44.01650000     -35.70510000     -71.03360000
C      -44.02700000     -35.57100000     -72.42290000
H      -45.16610000     -35.15840000     -74.23360000
H      -47.47030000     -35.57940000     -70.68560000
H      -43.11690000     -35.85870000     -70.38740000
H      -43.00980000     -35.61180000     -72.90270000
C      -45.41490000     -36.08700000     -68.85240000
H      -44.75310000     -36.92160000     -68.49150000
H      -46.45570000     -36.45280000     -68.69840000
C      -47.76420000     -35.01860000     -73.04300000
H      -47.95850000     -35.62140000     -73.92000000
H      -48.41870000     -35.47240000     -72.34290000
S      -45.27520000     -34.57800000     -67.85710000
S      -48.27370000     -33.30600000     -73.41460000
C      -46.42540000     -33.38930000     -68.66120000
H      -46.88950000     -33.74880000     -69.55480000
H      -47.34230000     -33.24020000     -68.01790000
C      -48.17870000     -32.39980000     -71.78240000
H      -47.74280000     -33.11860000     -71.08690000
H      -49.17570000     -31.99040000     -71.56770000
C      -47.21490000     -31.13570000     -71.79690000
H      -47.63090000     -30.28840000     -72.37070000
H      -47.14710000     -30.78010000     -70.70810000
C      -45.54450000     -32.04300000     -68.83460000
H      -45.17220000     -31.86820000     -67.77150000
H      -46.17860000     -31.20770000     -69.10560000
C      -44.49960000     -32.05260000     -69.86640000
C      -43.18750000     -32.42820000     -69.56270000
C      -44.72510000     -31.94240000     -71.32610000
H      -42.62470000     -32.42650000     -68.66560000
C      -43.50170000     -32.00990000     -72.04090000
C      -45.79310000     -31.49470000     -72.21410000
C      -45.40330000     -31.25830000     -73.52690000
S      -42.19490000     -32.53880000     -71.00190000
S      -43.68490000     -31.61470000     -73.71440000
H      -45.97390000     -31.02470000     -74.38090000
