40
Properties=species:S:1:pos:R:3 #=T CELL(abcABC):=T 1.889726e+02=T 90.00000=T Traj:=T positionsangstrom=T Step:=T 0=T Bead:=T pbc="F F F"
C      -45.86050000     -30.96600000     -71.55000000
C      -45.10080000     -31.01730000     -70.34820000
C      -45.66470000     -31.75690000     -69.29430000
C      -46.82130000     -32.57590000     -69.43980000
C      -47.56900000     -32.43340000     -70.65640000
C      -47.04160000     -31.63940000     -71.63320000
H      -45.43340000     -30.52930000     -72.43850000
H      -45.02620000     -31.77190000     -68.44350000
H      -48.43290000     -33.00700000     -70.76700000
H      -47.58770000     -31.49030000     -72.59310000
C      -47.28850000     -33.45320000     -68.33700000
H      -48.32130000     -33.21280000     -68.21950000
H      -46.83430000     -33.21310000     -67.33370000
C      -43.80400000     -30.16020000     -70.16390000
H      -44.10500000     -29.11110000     -70.36810000
H      -43.38220000     -30.26220000     -69.16450000
S      -47.25670000     -35.30750000     -68.60830000
S      -42.51080000     -30.59380000     -71.48020000
C      -45.43180000     -35.42490000     -68.83140000
H      -45.06460000     -34.40220000     -68.79580000
H      -45.11130000     -35.89410000     -67.92320000
C      -41.86780000     -32.33480000     -71.11590000
H      -41.30840000     -32.29910000     -70.17820000
H      -41.09110000     -32.47070000     -71.80670000
C      -42.72520000     -33.66430000     -71.17710000
H      -41.96710000     -34.51840000     -71.21360000
H      -43.21210000     -33.74260000     -70.24480000
C      -45.08700000     -36.12270000     -70.15300000
H      -45.48840000     -37.15130000     -70.16700000
H      -43.95680000     -36.15230000     -70.16040000
C      -45.64920000     -35.45590000     -71.36790000
C      -46.77250000     -35.97800000     -71.90720000
C      -45.01340000     -34.47590000     -72.26010000
H      -47.31650000     -36.87140000     -71.63590000
C      -45.73820000     -34.34800000     -73.42160000
C      -43.69550000     -33.77110000     -72.24890000
C      -43.50680000     -33.14700000     -73.40380000
S      -47.20270000     -35.26860000     -73.38640000
S      -44.88520000     -33.22530000     -74.56690000
H      -42.56740000     -32.69750000     -73.74020000
