40
Properties=species:S:1:pos:R:3 #=T CELL(abcABC):=T 1.889726e+02=T 90.00000=T Traj:=T positionsangstrom=T Step:=T 0=T Bead:=T pbc="F F F"
C      -44.80460000     -30.26920000     -71.97040000
C      -44.29580000     -30.63440000     -70.71820000
C      -45.06910000     -31.11130000     -69.69320000
C      -46.50110000     -31.16610000     -69.90510000
C      -47.02080000     -31.03000000     -71.22590000
C      -46.21780000     -30.47880000     -72.23260000
H      -44.14890000     -29.77670000     -72.64880000
H      -44.53400000     -31.19900000     -68.78240000
H      -48.11510000     -31.10240000     -71.25160000
H      -46.62250000     -30.11340000     -73.14200000
C      -47.24900000     -31.70860000     -68.74010000
H      -48.21570000     -31.12010000     -68.54440000
H      -46.62460000     -31.50670000     -67.88060000
C      -42.80410000     -30.64310000     -70.50590000
H      -42.39670000     -29.61890000     -70.55170000
H      -42.48310000     -30.86450000     -69.47470000
S      -47.59750000     -33.49030000     -68.93120000
S      -41.92860000     -31.61340000     -71.75940000
C      -46.07440000     -34.52480000     -68.55520000
H      -45.24700000     -33.82280000     -68.50110000
H      -46.13540000     -34.80350000     -67.46460000
C      -42.12470000     -33.25850000     -70.94790000
H      -41.60710000     -33.32270000     -69.94140000
H      -41.72070000     -34.02100000     -71.58550000
C      -43.47570000     -33.94170000     -70.65890000
H      -43.28270000     -34.78930000     -69.98460000
H      -44.10280000     -33.25640000     -70.04350000
C      -45.88240000     -35.78310000     -69.38270000
H      -46.47680000     -36.48910000     -68.94660000
H      -44.83620000     -36.03000000     -69.18050000
C      -46.24910000     -35.67690000     -70.86850000
C      -47.35660000     -36.29950000     -71.39930000
C      -45.41020000     -35.17380000     -71.91260000
H      -48.18140000     -36.71210000     -70.86960000
C      -45.83880000     -35.46010000     -73.19270000
C      -44.20370000     -34.33680000     -71.91190000
C      -43.90490000     -33.87830000     -73.17530000
S      -47.40420000     -36.24430000     -73.10980000
S      -44.92820000     -34.52850000     -74.45420000
H      -43.22390000     -33.04520000     -73.36440000
