40
Properties=species:S:1:pos:R:3 #=T CELL(abcABC):=T 1.889726e+02=T 90.00000=T Traj:=T positionsangstrom=T Step:=T 0=T Bead:=T pbc="F F F"
C      -45.03690000     -30.53390000     -71.99360000
C      -44.38000000     -30.75430000     -70.76750000
C      -45.14040000     -31.32510000     -69.70600000
C      -46.53780000     -31.31850000     -69.79740000
C      -47.19290000     -31.04630000     -70.97150000
C      -46.44600000     -30.60250000     -72.10970000
H      -44.48730000     -29.91190000     -72.81920000
H      -44.62810000     -31.50410000     -68.73320000
H      -48.32580000     -31.18260000     -70.93780000
H      -47.00900000     -30.28890000     -73.03090000
C      -47.31470000     -31.88810000     -68.63410000
H      -48.24210000     -31.35750000     -68.52100000
H      -46.69680000     -31.86660000     -67.66100000
C      -42.95920000     -30.56430000     -70.49180000
H      -42.71440000     -29.48700000     -70.53500000
H      -42.68310000     -30.94950000     -69.49800000
S      -47.73200000     -33.67940000     -68.95300000
S      -41.87110000     -31.46710000     -71.68250000
C      -46.10890000     -34.44120000     -68.66610000
H      -45.32600000     -33.67520000     -68.95140000
H      -46.03350000     -34.61330000     -67.57540000
C      -41.91840000     -33.21220000     -70.90510000
H      -41.43350000     -33.13930000     -69.91500000
H      -41.31200000     -33.83070000     -71.57920000
C      -43.28700000     -33.87120000     -70.61700000
H      -43.24600000     -34.75540000     -70.02500000
H      -43.70130000     -33.09900000     -69.93300000
C      -45.79900000     -35.68320000     -69.47690000
H      -46.38390000     -36.52800000     -68.91280000
H      -44.73970000     -35.95120000     -69.34040000
C      -46.12020000     -35.74200000     -70.93700000
C      -47.17190000     -36.37030000     -71.52290000
C      -45.28420000     -35.08150000     -71.92560000
H      -47.92460000     -37.01100000     -71.03500000
C      -45.81560000     -35.30090000     -73.25090000
C      -44.13750000     -34.19150000     -71.87530000
C      -43.87940000     -33.71930000     -73.16070000
S      -47.26600000     -36.24940000     -73.27000000
S      -44.97520000     -34.35430000     -74.40850000
H      -42.95930000     -33.22600000     -73.50220000
