40
Properties=species:S:1:pos:R:3 #=T CELL(abcABC):=T 1.889726e+02=T 90.00000=T Traj:=T positionsangstrom=T Step:=T 0=T Bead:=T pbc="F F F"
C      -45.37190000     -30.94260000     -71.71200000
C      -44.72910000     -31.05380000     -70.47100000
C      -45.44080000     -31.65180000     -69.42540000
C      -46.80810000     -31.97940000     -69.55660000
C      -47.41900000     -31.83980000     -70.81120000
C      -46.70660000     -31.33490000     -71.86850000
H      -44.99140000     -30.50140000     -72.63330000
H      -45.11520000     -31.77790000     -68.35340000
H      -48.44270000     -32.19590000     -70.99000000
H      -47.26920000     -31.12600000     -72.76480000
C      -47.59820000     -32.57540000     -68.39910000
H      -48.72130000     -32.33850000     -68.60060000
H      -47.21220000     -32.38920000     -67.39200000
C      -43.33260000     -30.49560000     -70.36010000
H      -43.50330000     -29.39630000     -70.57760000
H      -42.83800000     -30.65280000     -69.37300000
S      -47.50750000     -34.42670000     -68.61350000
S      -42.14090000     -31.18010000     -71.61150000
C      -45.71390000     -34.89820000     -68.68430000
H      -44.97570000     -34.02830000     -68.68560000
H      -45.55990000     -35.36990000     -67.70180000
C      -41.85790000     -32.82480000     -70.94460000
H      -41.51830000     -32.61220000     -69.90030000
H      -40.92270000     -33.22560000     -71.35990000
C      -43.02770000     -33.82120000     -70.91080000
H      -42.59980000     -34.80940000     -70.72600000
H      -43.68400000     -33.56280000     -70.06640000
C      -45.48140000     -35.90370000     -69.80030000
H      -46.00180000     -36.87350000     -69.48940000
H      -44.33570000     -36.12210000     -69.88520000
C      -45.85780000     -35.47270000     -71.17830000
C      -46.97960000     -36.05160000     -71.75970000
C      -45.14330000     -34.62520000     -72.09220000
H      -47.64290000     -36.82570000     -71.33510000
C      -45.75600000     -34.70380000     -73.38050000
C      -43.93450000     -33.86440000     -72.12670000
C      -43.62710000     -33.35750000     -73.40090000
S      -47.21610000     -35.61890000     -73.48220000
S      -44.87750000     -33.73550000     -74.54790000
H      -42.71800000     -32.81820000     -73.67080000
