40
Properties=species:S:1:pos:R:3 #=T CELL(abcABC):=T 1.889726e+02=T 90.00000=T Traj:=T positionsangstrom=T Step:=T 0=T Bead:=T pbc="F F F"
C      -45.12640000     -30.56680000     -71.69890000
C      -44.57750000     -30.96690000     -70.45560000
C      -45.45670000     -31.40520000     -69.47870000
C      -46.83240000     -31.57880000     -69.71450000
C      -47.33610000     -31.19200000     -70.97220000
C      -46.47600000     -30.74630000     -71.93650000
H      -44.48170000     -30.07820000     -72.43330000
H      -44.94360000     -31.65160000     -68.53960000
H      -48.30010000     -31.41250000     -71.24890000
H      -46.88030000     -30.62680000     -72.98040000
C      -47.61080000     -32.19610000     -68.68050000
H      -48.68050000     -31.91660000     -68.74380000
H      -47.21540000     -32.03310000     -67.72340000
C      -43.12460000     -30.81520000     -70.21620000
H      -42.84450000     -29.79430000     -70.13350000
H      -42.89660000     -31.39990000     -69.37580000
S      -47.69760000     -34.03680000     -68.78520000
S      -42.05340000     -31.31480000     -71.62020000
C      -45.86630000     -34.41140000     -68.78130000
H      -45.43080000     -33.59000000     -69.39720000
H      -45.32860000     -34.56400000     -67.81810000
C      -41.75390000     -33.04540000     -71.31140000
H      -40.97670000     -33.19120000     -70.55950000
H      -41.28690000     -33.50670000     -72.16710000
C      -42.98180000     -33.92900000     -70.98870000
H      -42.52700000     -34.85960000     -70.65730000
H      -43.50540000     -33.48610000     -70.14090000
C      -45.45830000     -35.71330000     -69.55670000
H      -45.91920000     -36.58690000     -69.05620000
H      -44.32800000     -35.85030000     -69.34270000
C      -45.86310000     -35.67520000     -71.01870000
C      -46.98020000     -36.23090000     -71.46600000
C      -45.16460000     -34.91750000     -72.05790000
H      -47.68720000     -36.84640000     -70.88340000
C      -45.90400000     -34.91380000     -73.23610000
C      -43.93640000     -34.17240000     -72.12150000
C      -43.67650000     -33.73620000     -73.38510000
S      -47.32000000     -35.94150000     -73.19630000
S      -44.97820000     -34.18040000     -74.53620000
H      -42.90880000     -33.04210000     -73.71840000
