40
Properties=species:S:1:pos:R:3 #=T CELL(abcABC):=T 1.889726e+02=T 90.00000=T Traj:=T positionsangstrom=T Step:=T 0=T Bead:=T pbc="F F F"
C      -42.49410000     -34.17970000     -73.68920000
C      -43.66690000     -34.95390000     -73.55100000
C      -44.90750000     -34.54780000     -74.02030000
C      -44.97840000     -33.38640000     -74.78230000
C      -43.78130000     -32.63670000     -74.98210000
C      -42.55840000     -32.95110000     -74.40620000
H      -41.54750000     -34.63460000     -73.36700000
H      -45.69450000     -35.27820000     -73.97490000
H      -43.95210000     -31.72060000     -75.49470000
H      -41.73500000     -32.19480000     -74.36550000
C      -46.30410000     -32.83660000     -75.22860000
H      -46.99770000     -33.67470000     -75.63710000
H      -46.19080000     -32.07720000     -76.01110000
C      -43.57700000     -36.27880000     -72.86600000
H      -44.59400000     -36.73830000     -72.68780000
H      -42.98160000     -37.03390000     -73.50070000
S      -47.35970000     -32.12930000     -73.76730000
S      -42.65650000     -36.33650000     -71.23790000
C      -47.84620000     -33.66170000     -72.86670000
H      -48.93200000     -33.53280000     -72.60690000
H      -47.89840000     -34.54040000     -73.56640000
C      -43.41590000     -34.87790000     -70.39630000
H      -43.72950000     -34.12570000     -71.12570000
H      -42.61230000     -34.46510000     -69.71120000
C      -44.53270000     -35.11930000     -69.31210000
H      -45.40200000     -35.63930000     -69.68420000
H      -44.09610000     -35.74800000     -68.61720000
C      -47.16750000     -34.06860000     -71.51720000
H      -46.18100000     -34.50930000     -71.65530000
H      -47.84610000     -34.91120000     -71.16960000
C      -47.00590000     -32.94890000     -70.41040000
C      -47.85980000     -31.88270000     -70.47130000
C      -46.12840000     -32.97830000     -69.27940000
H      -48.51370000     -31.77930000     -71.28470000
C      -46.22560000     -31.80380000     -68.51240000
C      -45.02740000     -33.82110000     -68.71720000
C      -44.40250000     -33.30560000     -67.64120000
S      -47.55700000     -30.81190000     -69.07000000
S      -45.12010000     -31.75050000     -67.07550000
H      -43.51310000     -33.77390000     -67.16830000
