40
Properties=species:S:1:pos:R:3 #=T CELL(abcABC):=T 1.889726e+02=T 90.00000=T Traj:=T positionsangstrom=T Step:=T 0=T Bead:=T pbc="F F F"
C      -45.35070000     -30.78980000     -71.72870000
C      -44.72260000     -30.83150000     -70.50980000
C      -45.45720000     -31.36800000     -69.40830000
C      -46.77490000     -31.79920000     -69.58040000
C      -47.39700000     -31.71630000     -70.85350000
C      -46.65950000     -31.18660000     -71.90660000
H      -44.82870000     -30.62740000     -72.64840000
H      -44.99360000     -31.38470000     -68.43110000
H      -48.44540000     -32.12110000     -71.08260000
H      -47.02090000     -31.14240000     -72.84900000
C      -47.47500000     -32.41050000     -68.39700000
H      -48.42880000     -32.01700000     -68.15880000
H      -46.92630000     -32.36430000     -67.47930000
C      -43.24500000     -30.54200000     -70.25540000
H      -43.03850000     -29.50840000     -70.10220000
H      -43.01370000     -30.94420000     -69.29130000
S      -47.69470000     -34.36990000     -68.77290000
S      -42.11020000     -31.21550000     -71.56190000
C      -45.84500000     -34.65310000     -68.73620000
H      -45.25000000     -33.77880000     -68.94020000
H      -45.71670000     -34.86450000     -67.66920000
C      -41.73640000     -32.97580000     -71.13970000
H      -41.22020000     -32.96920000     -70.16100000
H      -41.16030000     -33.39860000     -71.94090000
C      -43.01950000     -33.79830000     -70.95630000
H      -42.64660000     -34.78950000     -70.60540000
H      -43.60120000     -33.39410000     -70.16410000
C      -45.33290000     -35.72430000     -69.71160000
H      -45.78260000     -36.72140000     -69.44390000
H      -44.27570000     -35.74010000     -69.75020000
C      -45.82840000     -35.56020000     -71.15500000
C      -46.99830000     -36.11130000     -71.59410000
C      -45.14060000     -34.73920000     -72.13570000
H      -47.72840000     -36.68500000     -71.02500000
C      -45.83220000     -34.76950000     -73.39090000
C      -43.87040000     -33.97290000     -72.20720000
C      -43.53580000     -33.60310000     -73.51660000
S      -47.33050000     -35.74550000     -73.22590000
S      -44.85810000     -33.98400000     -74.58380000
H      -42.69560000     -32.98800000     -73.69140000
