40
Properties=species:S:1:pos:R:3 #=T CELL(abcABC):=T 1.889726e+02=T 90.00000=T Traj:=T positionsangstrom=T Step:=T 0=T Bead:=T pbc="F F F"
C      -44.67060000     -31.48860000     -72.72360000
C      -44.11390000     -31.37380000     -71.46120000
C      -44.97730000     -31.19620000     -70.31770000
C      -46.32530000     -31.15940000     -70.47800000
C      -46.95080000     -31.35090000     -71.80190000
C      -46.07450000     -31.61710000     -72.85320000
H      -44.06820000     -31.68620000     -73.63180000
H      -44.53990000     -31.24030000     -69.30790000
H      -47.95750000     -31.59130000     -71.91950000
H      -46.51030000     -31.84090000     -73.80620000
C      -47.23810000     -30.99910000     -69.24230000
H      -48.09360000     -30.36490000     -69.43220000
H      -46.65910000     -30.61260000     -68.35430000
C      -42.64560000     -31.18500000     -71.20290000
H      -42.27060000     -30.16100000     -71.49080000
H      -42.36890000     -31.31520000     -70.09030000
S      -47.94030000     -32.69470000     -68.76130000
S      -41.59870000     -32.38890000     -72.10130000
C      -46.31090000     -33.54890000     -68.25870000
H      -45.50500000     -32.85240000     -68.54010000
H      -46.14570000     -33.57340000     -67.18870000
C      -41.68600000     -33.79400000     -70.87550000
H      -41.30700000     -33.40770000     -69.97790000
H      -40.91490000     -34.54040000     -71.21540000
C      -43.10940000     -34.24460000     -70.58690000
H      -43.04680000     -35.15810000     -69.92260000
H      -43.52270000     -33.36450000     -69.94520000
C      -46.02730000     -34.93800000     -68.85430000
H      -46.57140000     -35.75800000     -68.44240000
H      -44.93080000     -35.13420000     -68.64990000
C      -46.30800000     -35.00170000     -70.34860000
C      -47.58190000     -35.35280000     -70.73400000
C      -45.43890000     -34.80570000     -71.50450000
H      -48.43020000     -35.48900000     -70.06960000
C      -46.11540000     -35.08370000     -72.70730000
C      -44.02140000     -34.47950000     -71.77860000
C      -43.65790000     -34.52360000     -73.12550000
S      -47.79450000     -35.50410000     -72.45510000
S      -45.06270000     -34.97160000     -74.13720000
H      -42.65750000     -34.44760000     -73.47010000
