40
Properties=species:S:1:pos:R:3 #=T CELL(abcABC):=T 1.889726e+02=T 90.00000=T Traj:=T positionsangstrom=T Step:=T 0=T Bead:=T pbc="F F F"
C      -42.46440000     -34.13830000     -73.69950000
C      -43.57220000     -34.93280000     -73.52870000
C      -44.78460000     -34.54670000     -74.04520000
C      -44.89730000     -33.29630000     -74.71380000
C      -43.78710000     -32.46300000     -74.91010000
C      -42.55850000     -32.92770000     -74.37760000
H      -41.60030000     -34.42990000     -73.18300000
H      -45.63610000     -35.13480000     -73.78870000
H      -43.88360000     -31.47790000     -75.40220000
H      -41.63930000     -32.29470000     -74.51520000
C      -46.27820000     -32.84780000     -75.05860000
H      -46.98040000     -33.56400000     -75.46780000
H      -46.33830000     -31.97510000     -75.66450000
C      -43.47880000     -36.27700000     -72.83760000
H      -44.48080000     -36.66660000     -72.81600000
H      -42.83040000     -36.88630000     -73.41840000
S      -47.31190000     -32.20890000     -73.58470000
S      -42.80080000     -36.41910000     -71.07510000
C      -47.83170000     -33.72390000     -72.67750000
H      -48.80420000     -33.49690000     -72.41110000
H      -47.76060000     -34.44800000     -73.45600000
C      -43.42770000     -34.80570000     -70.32540000
H      -43.64650000     -34.20480000     -71.21360000
H      -42.62500000     -34.25630000     -69.76530000
C      -44.63840000     -35.16220000     -69.46350000
H      -45.42090000     -35.61190000     -70.09790000
H      -44.42930000     -35.97100000     -68.65130000
C      -46.96090000     -34.04860000     -71.51120000
H      -45.95970000     -34.12820000     -71.87810000
H      -47.09090000     -35.04260000     -71.06350000
C      -47.12000000     -32.98260000     -70.47770000
C      -47.95960000     -31.87150000     -70.41340000
C      -46.16640000     -32.96750000     -69.38190000
H      -48.74890000     -31.70600000     -71.13140000
C      -46.19040000     -31.78590000     -68.65440000
C      -45.19870000     -33.89380000     -68.82230000
C      -44.52300000     -33.30830000     -67.79500000
S      -47.56610000     -30.80630000     -69.10440000
S      -45.05580000     -31.73200000     -67.38490000
H      -43.71820000     -33.77850000     -67.23750000
