40
Properties=species:S:1:pos:R:3 #=T CELL(abcABC):=T 1.889726e+02=T 90.00000=T Traj:=T positionsangstrom=T Step:=T 0=T Bead:=T pbc="F F F"
C      -44.60890000     -30.84980000     -72.45500000
C      -44.05370000     -30.88930000     -71.15200000
C      -44.94170000     -31.02980000     -70.08910000
C      -46.35080000     -31.14840000     -70.19990000
C      -46.84150000     -31.18950000     -71.49860000
C      -45.99750000     -31.01330000     -72.63720000
H      -43.85840000     -30.76730000     -73.32230000
H      -44.47330000     -30.91680000     -69.12870000
H      -47.95100000     -31.28880000     -71.71120000
H      -46.39850000     -30.96370000     -73.66000000
C      -47.19040000     -31.36510000     -69.06860000
H      -48.12490000     -30.83990000     -69.26460000
H      -46.84690000     -30.92100000     -68.13570000
C      -42.53700000     -30.81440000     -70.96180000
H      -42.16960000     -29.88560000     -71.44240000
H      -42.33360000     -30.69200000     -69.87160000
S      -47.68710000     -33.15290000     -68.88250000
S      -41.58910000     -32.16850000     -71.88080000
C      -46.13800000     -33.92900000     -68.39050000
H      -45.34130000     -33.25890000     -68.76040000
H      -46.12220000     -33.97860000     -67.30150000
C      -41.87350000     -33.78140000     -70.90870000
H      -41.38270000     -33.67180000     -69.97230000
H      -41.23850000     -34.40050000     -71.55630000
C      -43.28920000     -34.21140000     -70.68010000
H      -43.27810000     -35.22730000     -70.21690000
H      -43.79760000     -33.51710000     -70.01330000
C      -45.99670000     -35.32940000     -68.99310000
H      -46.69950000     -35.97220000     -68.50740000
H      -44.96580000     -35.75340000     -68.71580000
C      -46.21400000     -35.47840000     -70.54300000
C      -47.41340000     -36.08540000     -70.99910000
C      -45.52810000     -34.84990000     -71.67620000
H      -48.20410000     -36.40340000     -70.30710000
C      -46.26290000     -35.04220000     -72.84330000
C      -44.20550000     -34.28140000     -71.88250000
C      -43.93250000     -34.12990000     -73.20910000
S      -47.72300000     -35.98350000     -72.68280000
S      -45.32860000     -34.53340000     -74.25200000
H      -43.03560000     -33.84090000     -73.77980000
