40
Properties=species:S:1:pos:R:3 #=T CELL(abcABC):=T 1.889726e+02=T 90.00000=T Traj:=T positionsangstrom=T Step:=T 0=T Bead:=T pbc="F F F"
C      -44.54120000     -31.08110000     -72.83050000
C      -43.98570000     -31.00220000     -71.51000000
C      -44.80150000     -31.10150000     -70.38620000
C      -46.14250000     -31.50610000     -70.56400000
C      -46.70770000     -31.65220000     -71.81810000
C      -45.91700000     -31.38070000     -72.93780000
H      -44.03050000     -30.90440000     -73.70520000
H      -44.49420000     -31.10600000     -69.35170000
H      -47.77010000     -31.88690000     -71.83810000
H      -46.28060000     -31.49890000     -73.97860000
C      -46.97280000     -31.44420000     -69.29170000
H      -47.90400000     -30.88940000     -69.38980000
H      -46.38820000     -31.13970000     -68.43700000
C      -42.56600000     -30.76180000     -71.27270000
H      -42.21090000     -29.92430000     -71.96990000
H      -42.30580000     -30.54440000     -70.22340000
S      -47.67570000     -33.05840000     -68.71900000
S      -41.54020000     -32.19880000     -71.99030000
C      -46.08970000     -34.00040000     -68.27220000
H      -45.28910000     -33.49690000     -68.80160000
H      -45.89850000     -34.04320000     -67.21030000
C      -41.82470000     -33.64920000     -70.93150000
H      -41.24740000     -33.38390000     -70.02500000
H      -41.28810000     -34.45560000     -71.40590000
C      -43.20780000     -34.04300000     -70.57580000
H      -43.08580000     -34.91130000     -69.85980000
H      -43.71140000     -33.32760000     -69.86400000
C      -46.17800000     -35.44880000     -68.87920000
H      -47.00140000     -36.09380000     -68.38700000
H      -45.21520000     -35.98440000     -68.69010000
C      -46.43800000     -35.45730000     -70.35080000
C      -47.67800000     -35.76200000     -70.86670000
C      -45.60340000     -34.89100000     -71.43140000
H      -48.46140000     -36.17920000     -70.24510000
C      -46.24440000     -34.92910000     -72.65500000
C      -44.23800000     -34.37950000     -71.62030000
C      -43.92960000     -34.13420000     -72.92000000
S      -47.93060000     -35.52190000     -72.58310000
S      -45.31280000     -34.57330000     -74.02350000
H      -43.13820000     -33.60910000     -73.40160000
