40
Properties=species:S:1:pos:R:3 #=T CELL(abcABC):=T 1.889726e+02=T 90.00000=T Traj:=T positionsangstrom=T Step:=T 0=T Bead:=T pbc="F F F"
C      -44.80330000     -31.61530000     -72.71510000
C      -44.27280000     -31.26240000     -71.40100000
C      -45.12070000     -31.01600000     -70.34510000
C      -46.50530000     -30.92140000     -70.54790000
C      -47.07300000     -31.30900000     -71.81360000
C      -46.20180000     -31.64940000     -72.84700000
H      -44.09940000     -31.82540000     -73.56500000
H      -44.61360000     -30.75010000     -69.39530000
H      -48.14910000     -31.13340000     -72.03970000
H      -46.72500000     -32.03140000     -73.77580000
C      -47.40240000     -30.85290000     -69.37950000
H      -48.37670000     -30.50310000     -69.61170000
H      -47.05470000     -30.27660000     -68.49410000
C      -42.76750000     -31.06280000     -71.22940000
H      -42.45990000     -30.19630000     -71.69550000
H      -42.50570000     -30.99760000     -70.18410000
S      -47.84290000     -32.58360000     -68.64850000
S      -41.63140000     -32.33810000     -72.05220000
C      -46.12830000     -33.28500000     -68.40870000
H      -45.46500000     -32.71850000     -69.08730000
H      -45.84060000     -33.29850000     -67.36450000
C      -41.53610000     -33.96370000     -71.10580000
H      -40.74270000     -33.87230000     -70.29090000
H      -41.13690000     -34.70720000     -71.81180000
C      -42.92050000     -34.43150000     -70.58310000
H      -42.82930000     -35.21380000     -69.88740000
H      -43.36600000     -33.61600000     -70.00730000
C      -45.92050000     -34.70200000     -68.92230000
H      -46.44190000     -35.45060000     -68.26760000
H      -44.86760000     -34.89300000     -68.75940000
C      -46.33320000     -34.89930000     -70.36540000
C      -47.64560000     -35.08870000     -70.73570000
C      -45.43000000     -34.92240000     -71.46450000
H      -48.51880000     -35.32300000     -70.15050000
C      -46.05870000     -35.20280000     -72.65000000
C      -43.95540000     -34.83660000     -71.67810000
C      -43.62960000     -35.01360000     -73.02980000
S      -47.77660000     -35.38140000     -72.52780000
S      -44.96750000     -35.32040000     -74.01670000
H      -42.57810000     -34.97260000     -73.36320000
