40
Properties=species:S:1:pos:R:3 #=T CELL(abcABC):=T 1.889726e+02=T 90.00000=T Traj:=T positionsangstrom=T Step:=T 0=T Bead:=T pbc="F F F"
C      -48.37620000     -33.40290000     -73.27510000
C      -47.21560000     -33.34990000     -74.09760000
C      -46.42890000     -32.20530000     -74.05480000
C      -46.71770000     -31.12210000     -73.14890000
C      -47.82760000     -31.31910000     -72.31050000
C      -48.63220000     -32.46970000     -72.32110000
H      -49.01730000     -34.32160000     -73.34540000
H      -45.55840000     -32.23470000     -74.66460000
H      -48.17120000     -30.50690000     -71.65830000
H      -49.47860000     -32.54350000     -71.60900000
C      -46.01400000     -29.82940000     -73.11660000
H      -46.68020000     -28.95240000     -73.37000000
H      -45.19000000     -29.79600000     -73.87240000
C      -46.84280000     -34.49370000     -75.00230000
H      -47.63270000     -35.21570000     -75.13560000
H      -46.72820000     -34.03320000     -76.07010000
S      -45.07870000     -29.41560000     -71.57420000
S      -45.19200000     -35.16450000     -74.80550000
C      -44.55950000     -31.09580000     -70.99830000
H      -44.12770000     -31.72260000     -71.82950000
H      -43.73860000     -30.94620000     -70.30870000
C      -45.24920000     -35.40380000     -72.91420000
H      -44.79310000     -36.35570000     -72.70520000
H      -46.28660000     -35.22770000     -72.63930000
C      -44.37730000     -34.39890000     -72.15040000
H      -43.46100000     -34.12920000     -72.61380000
H      -44.87890000     -33.51580000     -71.97230000
C      -45.54650000     -31.92930000     -70.22880000
H      -46.20530000     -32.47600000     -70.89180000
H      -46.18920000     -31.18030000     -69.65840000
C      -44.96430000     -32.97310000     -69.25920000
C      -44.90910000     -32.69320000     -67.89580000
C      -44.40640000     -34.24630000     -69.56040000
H      -45.14780000     -31.82160000     -67.30700000
C      -44.04430000     -35.02490000     -68.41400000
C      -44.12870000     -35.00350000     -70.77440000
C      -43.60780000     -36.25260000     -70.49750000
S      -44.16790000     -34.03190000     -66.98650000
S      -43.33020000     -36.56830000     -68.78840000
H      -43.17790000     -36.85930000     -71.38100000
