40
Properties=species:S:1:pos:R:3 #=T CELL(abcABC):=T 1.889726e+02=T 90.00000=T Traj:=T positionsangstrom=T Step:=T 0=T Bead:=T pbc="F F F"
C      -44.58220000     -31.91930000     -73.43360000
C      -44.24730000     -31.31270000     -72.25670000
C      -45.31470000     -31.05850000     -71.37890000
C      -46.59110000     -31.57080000     -71.51370000
C      -46.90780000     -32.26260000     -72.69280000
C      -45.90160000     -32.27270000     -73.63370000
H      -43.79270000     -32.17010000     -74.13820000
H      -45.09850000     -30.53170000     -70.41550000
H      -47.93030000     -32.64050000     -72.96520000
H      -46.18350000     -32.73010000     -74.58200000
C      -47.68590000     -31.10520000     -70.63160000
H      -48.65110000     -31.21130000     -71.12270000
H      -47.59220000     -30.00490000     -70.47280000
C      -42.82440000     -30.96080000     -71.77480000
H      -42.58770000     -30.02900000     -72.24310000
H      -42.79970000     -30.60630000     -70.71010000
S      -47.87840000     -31.95360000     -68.86620000
S      -41.62100000     -32.37340000     -72.21660000
C      -46.18460000     -32.46420000     -68.35860000
H      -45.56900000     -31.82700000     -68.99730000
H      -46.01610000     -32.26300000     -67.30260000
C      -41.60350000     -33.61480000     -70.81610000
H      -41.05340000     -33.30920000     -69.93070000
H      -41.25430000     -34.55750000     -71.23960000
C      -42.99320000     -33.96340000     -70.26090000
H      -42.83080000     -34.66010000     -69.49430000
H      -43.39600000     -33.02610000     -69.78130000
C      -45.90170000     -34.03570000     -68.52210000
H      -46.51070000     -34.52980000     -67.77690000
H      -44.76720000     -34.14110000     -68.33160000
C      -46.25290000     -34.60930000     -69.80110000
C      -47.58320000     -34.88220000     -70.09190000
C      -45.34560000     -34.90200000     -70.86610000
H      -48.40370000     -34.57670000     -69.48110000
C      -46.00890000     -35.46530000     -71.96230000
C      -44.00240000     -34.62150000     -71.26900000
C      -43.63230000     -35.05920000     -72.53160000
S      -47.76610000     -35.56530000     -71.76310000
S      -44.96160000     -35.84670000     -73.30040000
H      -42.74920000     -34.75050000     -73.05790000
