40
Properties=species:S:1:pos:R:3 #=T CELL(abcABC):=T 1.889726e+02=T 90.00000=T Traj:=T positionsangstrom=T Step:=T 0=T Bead:=T pbc="F F F"
C      -44.58320000     -32.34290000     -73.40140000
C      -44.31100000     -31.51040000     -72.29830000
C      -45.36240000     -31.14290000     -71.46040000
C      -46.69020000     -31.55190000     -71.67190000
C      -46.97090000     -32.43250000     -72.77970000
C      -45.91980000     -32.68640000     -73.57270000
H      -43.87750000     -32.76200000     -74.12550000
H      -45.15830000     -30.47690000     -70.64180000
H      -47.92930000     -32.82630000     -72.86970000
H      -46.11480000     -33.34340000     -74.46520000
C      -47.85210000     -31.17490000     -70.82150000
H      -48.79070000     -31.60000000     -71.16910000
H      -47.90400000     -30.08920000     -70.75930000
C      -42.88250000     -31.01640000     -71.92770000
H      -42.50410000     -30.10180000     -72.46940000
H      -42.76980000     -30.86670000     -70.85460000
S      -47.88710000     -31.76100000     -68.95900000
S      -41.63790000     -32.31320000     -72.27830000
C      -46.20500000     -32.33350000     -68.57130000
H      -45.43600000     -31.81810000     -69.19910000
H      -45.98210000     -31.84490000     -67.63190000
C      -41.62470000     -33.29310000     -70.75020000
H      -41.15060000     -32.76380000     -69.85100000
H      -41.08720000     -34.22350000     -70.95570000
C      -42.99360000     -33.66990000     -70.24500000
H      -43.08840000     -34.29060000     -69.35160000
H      -43.52940000     -32.75200000     -70.02640000
C      -45.95640000     -33.82860000     -68.46270000
H      -46.51870000     -34.14580000     -67.53800000
H      -44.95470000     -33.97710000     -68.24030000
C      -46.23700000     -34.52820000     -69.75340000
C      -47.49410000     -34.99420000     -70.06670000
C      -45.36350000     -34.74700000     -70.85160000
H      -48.28610000     -35.09780000     -69.36160000
C      -45.99990000     -35.39080000     -71.88080000
C      -43.95080000     -34.48150000     -71.19430000
C      -43.57840000     -34.95140000     -72.42660000
S      -47.64190000     -35.76380000     -71.63880000
S      -44.89010000     -35.88790000     -73.13310000
H      -42.60400000     -35.04310000     -72.83780000
