40
Properties=species:S:1:pos:R:3 #=T CELL(abcABC):=T 1.889726e+02=T 90.00000=T Traj:=T positionsangstrom=T Step:=T 0=T Bead:=T pbc="F F F"
C      -44.98080000     -32.53820000     -73.64540000
C      -44.43350000     -31.54800000     -72.83770000
C      -45.17850000     -30.88300000     -71.89600000
C      -46.51370000     -31.22240000     -71.80940000
C      -47.14930000     -32.21220000     -72.65410000
C      -46.35630000     -32.80080000     -73.57690000
H      -44.35520000     -33.13070000     -74.24630000
H      -44.74790000     -30.16440000     -71.10600000
H      -48.19280000     -32.51210000     -72.44780000
H      -46.75350000     -33.57170000     -74.22340000
C      -47.33230000     -30.48780000     -70.77460000
H      -48.21620000     -29.91820000     -71.13480000
H      -46.76130000     -29.86540000     -70.10130000
C      -43.01690000     -31.19260000     -73.01620000
H      -42.73550000     -31.23860000     -74.11150000
H      -42.81570000     -30.17460000     -72.61200000
S      -48.11320000     -31.75930000     -69.67780000
S      -41.76160000     -32.39880000     -72.26890000
C      -46.61250000     -32.10010000     -68.72340000
H      -45.80400000     -31.53080000     -69.24310000
H      -46.70920000     -31.55900000     -67.74680000
C      -42.04280000     -32.47030000     -70.39850000
H      -42.16980000     -31.48250000     -69.94710000
H      -41.08180000     -32.83400000     -70.09160000
C      -43.20180000     -33.42290000     -69.87730000
H      -43.00720000     -33.88750000     -68.92030000
H      -43.85980000     -32.59500000     -69.62870000
C      -46.25550000     -33.55210000     -68.47610000
H      -47.06540000     -33.89640000     -67.76190000
H      -45.27300000     -33.75490000     -68.03340000
C      -46.33300000     -34.39640000     -69.76440000
C      -47.56800000     -35.01140000     -70.10190000
C      -45.22010000     -34.78560000     -70.60360000
H      -48.58990000     -35.14530000     -69.66060000
C      -45.64170000     -35.78320000     -71.47920000
C      -43.80080000     -34.45480000     -70.78440000
C      -43.22270000     -35.26610000     -71.73920000
S      -47.38890000     -36.17820000     -71.43470000
S      -44.37660000     -36.29800000     -72.59220000
H      -42.26100000     -35.08620000     -72.19320000
