40
Properties=species:S:1:pos:R:3 #=T CELL(abcABC):=T 1.889726e+02=T 90.00000=T Traj:=T positionsangstrom=T Step:=T 0=T Bead:=T pbc="F F F"
C      -44.84940000     -32.40810000     -73.61030000
C      -44.34100000     -31.50040000     -72.66980000
C      -45.24390000     -30.92780000     -71.71810000
C      -46.61330000     -31.29420000     -71.80240000
C      -47.09340000     -32.18530000     -72.75260000
C      -46.17650000     -32.78130000     -73.65320000
H      -44.23000000     -32.84440000     -74.33850000
H      -44.93120000     -30.18280000     -70.98680000
H      -48.19920000     -32.49960000     -72.84050000
H      -46.50570000     -33.52250000     -74.32730000
C      -47.55910000     -30.67500000     -70.76250000
H      -48.50780000     -30.40760000     -71.24130000
H      -47.15680000     -29.70930000     -70.37410000
C      -42.87580000     -31.13140000     -72.73610000
H      -42.56500000     -30.79190000     -73.68210000
H      -42.60540000     -30.32450000     -72.00730000
S      -48.08050000     -31.72010000     -69.29770000
S      -41.69440000     -32.49080000     -72.35640000
C      -46.40890000     -32.14230000     -68.59350000
H      -45.70990000     -31.82320000     -69.41720000
H      -46.14100000     -31.57470000     -67.68190000
C      -42.00490000     -32.70250000     -70.59170000
H      -42.07760000     -31.72550000     -70.06820000
H      -41.05220000     -33.09540000     -70.12560000
C      -43.14420000     -33.51630000     -70.00850000
H      -42.65430000     -34.14800000     -69.17620000
H      -43.94540000     -32.97470000     -69.38210000
C      -46.31510000     -33.69690000     -68.37410000
H      -47.13590000     -34.03290000     -67.83000000
H      -45.44920000     -33.93210000     -67.73930000
C      -46.34500000     -34.48770000     -69.70840000
C      -47.47330000     -35.30940000     -69.93390000
C      -45.32760000     -34.82530000     -70.69750000
H      -48.47130000     -35.31650000     -69.41150000
C      -45.73330000     -35.65500000     -71.73620000
C      -43.92230000     -34.41780000     -70.88510000
C      -43.33350000     -35.05980000     -71.93050000
S      -47.44760000     -36.07750000     -71.55080000
S      -44.47890000     -36.07480000     -72.77670000
H      -42.30530000     -35.04750000     -72.25720000
