40
Properties=species:S:1:pos:R:3 #=T CELL(abcABC):=T 1.889726e+02=T 90.00000=T Traj:=T positionsangstrom=T Step:=T 0=T Bead:=T pbc="F F F"
C      -46.78660000     -35.45880000     -75.09710000
C      -47.24480000     -34.85040000     -73.97090000
C      -47.02690000     -33.52590000     -73.73470000
C      -46.31420000     -32.75640000     -74.67020000
C      -45.87900000     -33.37190000     -75.83060000
C      -46.09230000     -34.69390000     -76.09190000
H      -46.84770000     -36.52390000     -75.10140000
H      -47.38550000     -33.06270000     -72.81350000
H      -45.36960000     -32.67370000     -76.54290000
H      -45.78700000     -35.12040000     -77.10870000
C      -46.17510000     -31.13610000     -74.51160000
H      -46.77080000     -30.76010000     -75.38730000
H      -45.13190000     -30.76330000     -74.65050000
C      -47.94610000     -35.64840000     -72.94460000
H      -48.58320000     -34.97240000     -72.42780000
H      -48.68560000     -36.34300000     -73.44800000
S      -46.80810000     -30.58870000     -72.91050000
S      -46.87960000     -36.65540000     -71.79180000
C      -45.55700000     -31.13100000     -71.76150000
H      -44.99220000     -31.97340000     -72.23080000
H      -44.90590000     -30.23220000     -71.54930000
C      -46.18710000     -35.51720000     -70.55440000
H      -46.25870000     -35.99050000     -69.53900000
H      -46.72390000     -34.57180000     -70.44990000
C      -44.75200000     -35.10490000     -70.92310000
H      -44.05870000     -35.92190000     -71.21080000
H      -44.78690000     -34.47440000     -71.78090000
C      -46.08970000     -31.55100000     -70.46180000
H      -46.77250000     -32.42910000     -70.64940000
H      -46.76380000     -30.80880000     -69.97220000
C      -44.87280000     -31.84690000     -69.56120000
C      -44.34450000     -30.73560000     -68.93490000
C      -44.13610000     -33.11480000     -69.32500000
H      -44.80430000     -29.74820000     -68.77560000
C      -43.22990000     -32.84660000     -68.27260000
C      -44.11800000     -34.50890000     -69.66460000
C      -43.30910000     -35.23380000     -68.84250000
S      -43.00350000     -31.14070000     -67.85190000
S      -42.45200000     -34.27630000     -67.62800000
H      -43.23860000     -36.27190000     -68.97390000
