40
Properties=species:S:1:pos:R:3 #=T CELL(abcABC):=T 1.889726e+02=T 90.00000=T Traj:=T positionsangstrom=T Step:=T 0=T Bead:=T pbc="F F F"
C      -46.78720000     -35.52460000     -74.88610000
C      -47.35290000     -34.86600000     -73.77190000
C      -47.36530000     -33.47810000     -73.74520000
C      -46.76650000     -32.69770000     -74.69330000
C      -46.32380000     -33.37500000     -75.86630000
C      -46.28380000     -34.76660000     -75.95920000
H      -46.95180000     -36.58620000     -75.00200000
H      -47.84800000     -32.93510000     -72.88900000
H      -45.94350000     -32.82790000     -76.72970000
H      -45.83060000     -35.37870000     -76.86090000
C      -46.66640000     -31.22340000     -74.70370000
H      -47.52140000     -30.93430000     -75.25610000
H      -45.79550000     -30.85760000     -75.30310000
C      -47.92580000     -35.56770000     -72.64690000
H      -48.08630000     -34.86680000     -71.80460000
H      -48.86900000     -36.05340000     -72.90120000
S      -46.67450000     -30.36460000     -73.07350000
S      -46.76120000     -36.86810000     -71.83450000
C      -45.39070000     -31.06700000     -71.94000000
H      -44.77010000     -31.76620000     -72.50470000
H      -44.72360000     -30.23900000     -71.72720000
C      -46.04580000     -35.86120000     -70.46040000
H      -45.89710000     -36.65760000     -69.70690000
H      -46.83590000     -35.19430000     -70.13650000
C      -44.81140000     -35.05080000     -70.82470000
H      -44.10890000     -35.78780000     -71.21420000
H      -45.09440000     -34.26880000     -71.59630000
C      -45.86980000     -31.83900000     -70.69880000
H      -46.11960000     -32.75380000     -71.04860000
H      -46.84740000     -31.42770000     -70.42660000
C      -44.82990000     -31.88470000     -69.57060000
C      -44.41430000     -30.75640000     -68.90720000
C      -44.06760000     -33.04920000     -69.24210000
H      -44.71040000     -29.69750000     -69.16900000
C      -43.17960000     -32.76830000     -68.15440000
C      -44.07910000     -34.43260000     -69.57710000
C      -43.09170000     -35.13290000     -68.95340000
S      -43.05640000     -31.07170000     -67.73380000
S      -42.17450000     -34.18650000     -67.72000000
H      -42.89030000     -36.14180000     -69.19620000
