40
Properties=species:S:1:pos:R:3 #=T CELL(abcABC):=T 1.889726e+02=T 90.00000=T Traj:=T positionsangstrom=T Step:=T 0=T Bead:=T pbc="F F F"
C      -44.79360000     -32.29230000     -73.66440000
C      -44.35210000     -31.46190000     -72.53460000
C      -45.34680000     -31.01510000     -71.59760000
C      -46.68660000     -31.43970000     -71.76220000
C      -47.06690000     -32.29980000     -72.77040000
C      -46.08700000     -32.83430000     -73.66890000
H      -44.13340000     -32.68110000     -74.44710000
H      -45.15000000     -30.37350000     -70.81150000
H      -48.07770000     -32.59990000     -72.93770000
H      -46.47440000     -33.45130000     -74.49140000
C      -47.73800000     -30.92050000     -70.87120000
H      -48.66020000     -31.08380000     -71.37460000
H      -47.63160000     -29.81910000     -70.77140000
C      -42.87950000     -30.98230000     -72.32290000
H      -42.63180000     -30.35180000     -73.15930000
H      -42.84910000     -30.32790000     -71.41970000
S      -47.89160000     -31.70090000     -69.11030000
S      -41.77120000     -32.40430000     -72.29070000
C      -46.13390000     -32.27790000     -68.57050000
H      -45.50890000     -31.94470000     -69.37310000
H      -45.90770000     -31.86480000     -67.60120000
C      -41.73890000     -33.15440000     -70.63870000
H      -41.17830000     -32.41840000     -70.07470000
H      -41.15520000     -34.05460000     -70.75550000
C      -43.09170000     -33.56620000     -70.12980000
H      -42.80160000     -33.87550000     -69.18530000
H      -43.71980000     -32.62890000     -70.03430000
C      -46.04900000     -33.81120000     -68.45640000
H      -46.76390000     -34.21290000     -67.70690000
H      -45.00790000     -34.08470000     -68.10060000
C      -46.28430000     -34.54930000     -69.71860000
C      -47.52970000     -35.04570000     -70.07670000
C      -45.34820000     -34.75130000     -70.75640000
H      -48.41550000     -34.91790000     -69.43180000
C      -45.87830000     -35.56400000     -71.74230000
C      -43.90110000     -34.50210000     -70.91300000
C      -43.45590000     -35.07430000     -72.05240000
S      -47.52070000     -36.03630000     -71.53670000
S      -44.70130000     -35.85530000     -72.97150000
H      -42.49660000     -35.08130000     -72.53100000
