40
Properties=species:S:1:pos:R:3 #=T CELL(abcABC):=T 1.889726e+02=T 90.00000=T Traj:=T positionsangstrom=T Step:=T 0=T Bead:=T pbc="F F F"
C      -46.65370000     -35.43270000     -75.31680000
C      -47.07980000     -34.87080000     -74.10130000
C      -46.72330000     -33.55870000     -73.77230000
C      -46.00060000     -32.71870000     -74.63770000
C      -45.63570000     -33.32590000     -75.78610000
C      -45.86470000     -34.68220000     -76.16560000
H      -46.92320000     -36.47190000     -75.46890000
H      -47.07820000     -33.15390000     -72.90620000
H      -45.00510000     -32.79780000     -76.50540000
H      -45.42980000     -34.95090000     -77.11750000
C      -45.93280000     -31.20250000     -74.48090000
H      -46.46850000     -30.66490000     -75.31450000
H      -44.96080000     -30.76630000     -74.42350000
C      -47.88220000     -35.74050000     -73.17510000
H      -48.71840000     -35.22630000     -72.65890000
H      -48.25050000     -36.58230000     -73.71840000
S      -46.87210000     -30.61890000     -72.95670000
S      -47.03300000     -36.66630000     -71.80800000
C      -45.57300000     -31.31140000     -71.79420000
H      -44.95760000     -32.10900000     -72.14970000
H      -44.86020000     -30.53900000     -71.70670000
C      -46.54520000     -35.18070000     -70.76320000
H      -46.69970000     -35.46570000     -69.72610000
H      -47.25170000     -34.34530000     -71.00950000
C      -44.97090000     -34.81660000     -70.90920000
H      -44.41890000     -35.70010000     -71.33150000
H      -44.87000000     -33.98940000     -71.61020000
C      -46.06310000     -31.65310000     -70.43510000
H      -46.63620000     -32.61620000     -70.48510000
H      -46.76200000     -30.90820000     -70.06600000
C      -44.83110000     -31.73470000     -69.50260000
C      -44.36230000     -30.68410000     -68.75120000
C      -44.18230000     -33.01160000     -69.18140000
H      -44.72870000     -29.63260000     -68.61810000
C      -43.28260000     -32.89420000     -68.14390000
C      -44.18710000     -34.43800000     -69.67500000
C      -43.44080000     -35.24330000     -68.87000000
S      -43.04150000     -31.19680000     -67.61720000
S      -42.53350000     -34.39270000     -67.64660000
H      -43.25730000     -36.27420000     -69.00890000
