40
Properties=species:S:1:pos:R:3 #=T CELL(abcABC):=T 1.889726e+02=T 90.00000=T Traj:=T positionsangstrom=T Step:=T 0=T Bead:=T pbc="F F F"
C      -45.39270000     -35.33750000     -74.22710000
C      -46.59970000     -34.55350000     -74.15260000
C      -46.46130000     -33.19180000     -74.31670000
C      -45.18570000     -32.65090000     -74.53520000
C      -43.95650000     -33.37710000     -74.37760000
C      -44.15000000     -34.71520000     -74.39350000
H      -45.51740000     -36.41660000     -74.27370000
H      -47.27790000     -32.48190000     -74.25830000
H      -43.06150000     -32.83710000     -74.42240000
H      -43.32490000     -35.39380000     -74.58360000
C      -45.10230000     -31.15850000     -74.59500000
H      -45.61250000     -30.70540000     -75.41280000
H      -44.12910000     -30.72300000     -74.84660000
C      -47.97290000     -35.06170000     -73.90920000
H      -48.81350000     -34.32440000     -74.04570000
H      -48.27580000     -35.92840000     -74.52060000
S      -45.78390000     -30.23190000     -73.14330000
S      -48.13700000     -35.79920000     -72.26690000
C      -45.11640000     -31.14950000     -71.73330000
H      -44.68650000     -32.05880000     -72.20040000
H      -44.38010000     -30.43510000     -71.36980000
C      -47.23080000     -34.98390000     -70.89130000
H      -47.69210000     -35.44010000     -69.98400000
H      -47.64170000     -33.97100000     -70.75440000
C      -45.77730000     -35.07190000     -71.05290000
H      -45.59940000     -36.11230000     -71.36030000
H      -45.40750000     -34.48510000     -71.89170000
C      -46.10020000     -31.49270000     -70.59090000
H      -46.86430000     -32.19660000     -70.86190000
H      -46.58720000     -30.63090000     -70.23160000
C      -45.24530000     -32.03940000     -69.48660000
C      -44.69230000     -31.16790000     -68.57820000
C      -44.67560000     -33.35990000     -69.34720000
H      -44.99890000     -30.07890000     -68.59700000
C      -43.76310000     -33.36370000     -68.26840000
C      -44.86870000     -34.66400000     -69.81930000
C      -44.12480000     -35.62120000     -69.14850000
S      -43.56030000     -31.79720000     -67.51300000
S      -43.14970000     -34.91560000     -67.89110000
H      -44.10420000     -36.64910000     -69.49860000
