40
Properties=species:S:1:pos:R:3 #=T CELL(abcABC):=T 1.889726e+02=T 90.00000=T Traj:=T positionsangstrom=T Step:=T 0=T Bead:=T pbc="F F F"
C      -46.23730000     -35.59550000     -75.40290000
C      -46.96200000     -34.99240000     -74.39540000
C      -46.91910000     -33.59740000     -74.12190000
C      -46.17700000     -32.73170000     -74.82830000
C      -45.52770000     -33.37560000     -75.93690000
C      -45.45990000     -34.75420000     -76.16650000
H      -46.29710000     -36.69440000     -75.60310000
H      -47.44100000     -33.20730000     -73.30160000
H      -45.05830000     -32.70770000     -76.62770000
H      -44.83940000     -35.02840000     -76.92210000
C      -46.06680000     -31.24950000     -74.58310000
H      -46.64080000     -30.68760000     -75.32800000
H      -45.00730000     -31.00800000     -74.83330000
C      -47.89960000     -35.75020000     -73.46700000
H      -48.68340000     -35.02220000     -73.15870000
H      -48.36280000     -36.55920000     -73.97780000
S      -46.64210000     -30.65230000     -72.95310000
S      -47.19090000     -36.47050000     -71.80840000
C      -45.30760000     -31.02680000     -71.77070000
H      -44.81800000     -31.96620000     -72.15070000
H      -44.56570000     -30.16000000     -71.84740000
C      -46.60440000     -35.20860000     -70.53550000
H      -46.76390000     -35.75830000     -69.60240000
H      -47.28760000     -34.32530000     -70.58690000
C      -45.16860000     -34.78280000     -70.80920000
H      -44.72660000     -35.64010000     -71.36070000
H      -45.11660000     -33.88370000     -71.45710000
C      -45.89550000     -31.33510000     -70.39870000
H      -46.42140000     -32.28930000     -70.53490000
H      -46.59730000     -30.57360000     -70.07170000
C      -44.87180000     -31.66630000     -69.29270000
C      -44.33650000     -30.68290000     -68.45800000
C      -44.28000000     -32.97190000     -69.04040000
H      -44.43310000     -29.62540000     -68.54200000
C      -43.40280000     -32.98210000     -67.97390000
C      -44.38050000     -34.35320000     -69.63950000
C      -43.62980000     -35.25850000     -68.96540000
S      -43.11120000     -31.35300000     -67.38700000
S      -42.59440000     -34.49220000     -67.71780000
H      -43.35560000     -36.28910000     -69.21780000
