40
Properties=species:S:1:pos:R:3 #=T CELL(abcABC):=T 1.889726e+02=T 90.00000=T Traj:=T positionsangstrom=T Step:=T 0=T Bead:=T pbc="F F F"
C      -45.78760000     -35.52340000     -74.57050000
C      -46.88360000     -34.81350000     -74.03870000
C      -46.89670000     -33.40420000     -74.10370000
C      -45.79250000     -32.66300000     -74.57860000
C      -44.71710000     -33.40090000     -75.12610000
C      -44.75020000     -34.77440000     -75.12570000
H      -45.68680000     -36.58120000     -74.56720000
H      -47.76510000     -33.00680000     -73.53340000
H      -43.86590000     -32.91770000     -75.58450000
H      -43.96240000     -35.29210000     -75.53960000
C      -45.74660000     -31.11150000     -74.62310000
H      -46.31730000     -30.82010000     -75.53230000
H      -44.76300000     -30.73250000     -74.98020000
C      -47.99530000     -35.63000000     -73.44730000
H      -48.81930000     -35.05400000     -73.05840000
H      -48.47850000     -36.38560000     -74.04280000
S      -46.24440000     -30.18790000     -73.21740000
S      -47.41030000     -36.46470000     -71.81430000
C      -45.02010000     -30.74330000     -71.86470000
H      -44.58110000     -31.68810000     -72.27330000
H      -44.24500000     -29.92540000     -71.74680000
C      -46.89500000     -34.99070000     -70.95590000
H      -47.12560000     -35.21360000     -69.89200000
H      -47.62570000     -34.17150000     -71.04390000
C      -45.39860000     -34.36160000     -71.29680000
H      -44.92220000     -34.91180000     -72.10760000
H      -45.55660000     -33.35170000     -71.64960000
C      -45.68620000     -30.95390000     -70.45520000
H      -46.53930000     -31.54860000     -70.57940000
H      -46.05200000     -29.96020000     -70.14510000
C      -44.72860000     -31.63270000     -69.42500000
C      -44.28160000     -30.94100000     -68.35550000
C      -44.39960000     -33.06490000     -69.27030000
H      -44.46980000     -29.96180000     -68.11140000
C      -43.73980000     -33.30020000     -68.12220000
C      -44.58480000     -34.30630000     -70.07640000
C      -43.92900000     -35.36390000     -69.57330000
S      -43.42450000     -31.90610000     -67.17260000
S      -43.22640000     -35.02130000     -67.97550000
H      -43.81630000     -36.34750000     -70.01730000
