40
Properties=species:S:1:pos:R:3 #=T CELL(abcABC):=T 1.889726e+02=T 90.00000=T Traj:=T positionsangstrom=T Step:=T 0=T Bead:=T pbc="F F F"
C      -45.63030000     -35.46540000     -74.36240000
C      -46.79980000     -34.76800000     -74.12210000
C      -46.75930000     -33.34120000     -74.18020000
C      -45.58120000     -32.64310000     -74.56040000
C      -44.39890000     -33.34230000     -74.75540000
C      -44.45940000     -34.72300000     -74.62570000
H      -45.59590000     -36.57990000     -74.33730000
H      -47.68080000     -32.75660000     -74.01100000
H      -43.39570000     -32.94760000     -74.91040000
H      -43.58340000     -35.32400000     -74.86130000
C      -45.70830000     -31.09470000     -74.71280000
H      -46.54780000     -30.98420000     -75.40320000
H      -44.78890000     -30.74630000     -75.14420000
C      -48.08200000     -35.43860000     -73.60250000
H      -48.89060000     -34.70130000     -73.48190000
H      -48.34530000     -36.29170000     -74.30140000
S      -45.96440000     -30.13490000     -73.12930000
S      -47.68970000     -36.30860000     -71.99830000
C      -44.87630000     -30.76830000     -71.81960000
H      -44.14500000     -31.49490000     -72.15080000
H      -44.32200000     -29.91660000     -71.48470000
C      -47.04440000     -34.97930000     -70.88200000
H      -47.09120000     -35.34340000     -69.82170000
H      -47.63830000     -34.04870000     -70.98760000
C      -45.62450000     -34.58300000     -71.22210000
H      -45.13880000     -35.43330000     -71.74630000
H      -45.60870000     -33.73730000     -71.92840000
C      -45.67180000     -31.24270000     -70.64190000
H      -46.36380000     -32.06700000     -70.91810000
H      -46.36740000     -30.45180000     -70.29060000
C      -44.88590000     -31.75590000     -69.46900000
C      -44.48560000     -31.00490000     -68.41980000
C      -44.42910000     -33.11590000     -69.36370000
H      -44.73750000     -29.99680000     -68.36510000
C      -43.64800000     -33.32620000     -68.22180000
C      -44.79890000     -34.35550000     -70.00480000
C      -44.19640000     -35.43450000     -69.45830000
S      -43.50560000     -31.93030000     -67.23560000
S      -43.20370000     -35.01120000     -68.05190000
H      -44.33270000     -36.45030000     -69.74550000
