40
Properties=species:S:1:pos:R:3 #=T CELL(abcABC):=T 1.889726e+02=T 90.00000=T Traj:=T positionsangstrom=T Step:=T 0=T Bead:=T pbc="F F F"
C      -45.54610000     -34.99030000     -74.99350000
C      -46.48060000     -34.12640000     -74.40460000
C      -46.15980000     -32.76290000     -74.31240000
C      -44.95280000     -32.31130000     -74.83670000
C      -44.03260000     -33.16870000     -75.44590000
C      -44.31060000     -34.54390000     -75.54910000
H      -45.76940000     -36.05050000     -75.08330000
H      -46.79050000     -32.06570000     -73.88800000
H      -43.11350000     -32.72880000     -75.83120000
H      -43.60970000     -35.22140000     -75.92170000
C      -44.62550000     -30.89050000     -74.71170000
H      -45.22480000     -30.32820000     -75.39460000
H      -43.58240000     -30.71210000     -75.10360000
C      -47.74290000     -34.69710000     -73.82400000
H      -48.39720000     -33.97920000     -73.32080000
H      -48.25470000     -35.19240000     -74.60380000
S      -44.76230000     -30.03820000     -73.07840000
S      -47.42800000     -36.17390000     -72.78290000
C      -44.33320000     -31.26790000     -71.70450000
H      -43.75140000     -32.06640000     -72.13230000
H      -43.66750000     -30.74770000     -70.94650000
C      -46.93270000     -35.50890000     -71.15620000
H      -47.37600000     -36.24290000     -70.42360000
H      -47.39790000     -34.46190000     -71.09510000
C      -45.41940000     -35.38670000     -70.91540000
H      -44.91330000     -36.25320000     -71.10230000
H      -45.00330000     -34.62710000     -71.58230000
C      -45.53220000     -31.85660000     -70.94890000
H      -45.80400000     -32.77080000     -71.51720000
H      -46.24820000     -31.09350000     -71.04740000
C      -45.20270000     -32.15820000     -69.55310000
C      -44.99920000     -31.16280000     -68.61160000
C      -44.98250000     -33.44640000     -68.99500000
H      -45.11020000     -30.14050000     -68.89440000
C      -44.70690000     -33.41090000     -67.63370000
C      -45.03770000     -34.84890000     -69.49560000
C      -44.75960000     -35.72150000     -68.46620000
S      -44.50980000     -31.78420000     -67.03420000
S      -44.34200000     -34.99200000     -67.01200000
H      -44.73130000     -36.75210000     -68.63820000
