40
Properties=species:S:1:pos:R:3 #=T CELL(abcABC):=T 1.889726e+02=T 90.00000=T Traj:=T positionsangstrom=T Step:=T 0=T Bead:=T pbc="F F F"
C      -45.23000000     -34.91280000     -74.95950000
C      -46.45330000     -34.28770000     -74.48050000
C      -46.53820000     -32.91540000     -74.18460000
C      -45.37380000     -32.10720000     -74.40840000
C      -44.26360000     -32.72570000     -74.93030000
C      -44.15840000     -34.04410000     -75.25160000
H      -45.24930000     -35.91350000     -75.25450000
H      -47.42480000     -32.52720000     -73.83750000
H      -43.40460000     -32.08990000     -75.26140000
H      -43.30380000     -34.46390000     -75.68580000
C      -45.34110000     -30.59880000     -74.24500000
H      -46.37650000     -30.34440000     -73.84180000
H      -45.08320000     -29.97850000     -75.20400000
C      -47.65820000     -35.21620000     -74.37660000
H      -48.59760000     -34.57170000     -74.22640000
H      -47.80790000     -35.80460000     -75.25490000
S      -44.09500000     -30.14890000     -72.94350000
S      -47.36860000     -36.33330000     -72.89470000
C      -44.21730000     -31.41880000     -71.66010000
H      -44.13730000     -32.38620000     -72.16320000
H      -43.34070000     -31.31070000     -70.98980000
C      -46.99700000     -35.33440000     -71.30220000
H      -47.01440000     -36.10420000     -70.57290000
H      -47.79430000     -34.60240000     -70.99540000
C      -45.55230000     -34.83300000     -71.27660000
H      -44.84190000     -35.60160000     -71.72470000
H      -45.44260000     -33.91810000     -71.92940000
C      -45.47830000     -31.32670000     -70.77780000
H      -46.27360000     -31.85480000     -71.33900000
H      -45.83350000     -30.28480000     -70.66540000
C      -45.19140000     -31.93360000     -69.43490000
C      -45.09070000     -31.18570000     -68.27460000
C      -45.00790000     -33.39960000     -69.07980000
H      -44.81770000     -30.09720000     -68.25770000
C      -44.64230000     -33.59630000     -67.74900000
C      -45.05370000     -34.65750000     -69.84160000
C      -44.75500000     -35.75230000     -69.07810000
S      -44.59710000     -32.07990000     -66.87160000
S      -44.43370000     -35.26810000     -67.28780000
H      -44.58560000     -36.79810000     -69.39660000
