40
Properties=species:S:1:pos:R:3 #=T CELL(abcABC):=T 1.889726e+02=T 90.00000=T Traj:=T positionsangstrom=T Step:=T 0=T Bead:=T pbc="F F F"
C      -48.96010000     -33.27200000     -71.40860000
C      -48.40940000     -34.39290000     -72.04340000
C      -47.88390000     -34.25900000     -73.31370000
C      -47.62100000     -32.97530000     -73.84890000
C      -48.11370000     -31.85960000     -73.16580000
C      -48.80340000     -31.98470000     -71.93460000
H      -49.27390000     -33.49410000     -70.38790000
H      -47.40040000     -35.08900000     -73.82920000
H      -47.98110000     -30.86830000     -73.60950000
H      -49.06550000     -31.13460000     -71.32940000
C      -47.03300000     -32.74570000     -75.20350000
H      -47.04960000     -31.68660000     -75.41870000
H      -47.48680000     -33.27590000     -75.99960000
C      -48.57700000     -35.79270000     -71.36940000
H      -49.42580000     -35.64060000     -70.69940000
H      -48.91350000     -36.58210000     -72.09220000
S      -45.22960000     -33.25900000     -75.16830000
S      -47.08950000     -36.53830000     -70.61860000
C      -44.44630000     -32.33260000     -73.78090000
H      -43.52690000     -31.87550000     -74.11020000
H      -44.96340000     -31.43660000     -73.65530000
C      -46.12740000     -35.08980000     -69.88780000
H      -46.71000000     -34.87270000     -68.91250000
H      -46.17450000     -34.19670000     -70.52100000
C      -44.67450000     -35.47390000     -69.72780000
H      -44.63190000     -36.30220000     -69.06150000
H      -44.37270000     -35.81920000     -70.75010000
C      -44.38180000     -33.20290000     -72.48250000
H      -43.79050000     -34.11640000     -72.70030000
H      -45.37280000     -33.44140000     -72.23810000
C      -43.79760000     -32.44190000     -71.29160000
C      -43.30280000     -31.12840000     -71.36660000
C      -43.48860000     -33.07410000     -70.00340000
H      -43.32190000     -30.50540000     -72.23100000
C      -42.71470000     -32.24280000     -69.17560000
C      -43.78240000     -34.29480000     -69.27660000
C      -43.26510000     -34.33160000     -68.03700000
S      -42.41670000     -30.63110000     -69.92900000
S      -42.25990000     -32.94390000     -67.64660000
H      -43.31320000     -35.15270000     -67.25710000
