40
Properties=species:S:1:pos:R:3 #=T CELL(abcABC):=T 1.889726e+02=T 90.00000=T Traj:=T positionsangstrom=T Step:=T 0=T Bead:=T pbc="F F F"
C      -44.93630000     -34.53800000     -74.73810000
C      -46.20430000     -34.01670000     -74.55690000
C      -46.36160000     -32.63190000     -74.41360000
C      -45.27360000     -31.74890000     -74.49780000
C      -44.00340000     -32.25220000     -74.75640000
C      -43.81590000     -33.71350000     -74.87090000
H      -44.72270000     -35.55470000     -74.75960000
H      -47.33270000     -32.22250000     -74.44270000
H      -43.19190000     -31.57490000     -74.62830000
H      -42.77800000     -33.91750000     -74.96250000
C      -45.42810000     -30.25770000     -74.14530000
H      -46.51180000     -30.01900000     -74.15990000
H      -44.99230000     -29.49530000     -74.75460000
C      -47.43420000     -34.94060000     -74.39410000
H      -48.43190000     -34.46540000     -74.32250000
H      -47.48060000     -35.46240000     -75.34200000
S      -44.46350000     -29.77890000     -72.63640000
S      -47.26200000     -36.34510000     -73.19790000
C      -44.31080000     -31.22430000     -71.62480000
H      -44.04780000     -32.23950000     -72.06090000
H      -43.43670000     -31.03320000     -70.97100000
C      -47.04430000     -35.53040000     -71.47750000
H      -47.25560000     -36.31060000     -70.73960000
H      -47.75600000     -34.72240000     -71.37930000
C      -45.59320000     -35.02010000     -71.32510000
H      -44.92660000     -35.71270000     -71.81320000
H      -45.43290000     -33.98690000     -71.68110000
C      -45.55210000     -31.52770000     -70.73670000
H      -46.28630000     -32.15420000     -71.31380000
H      -45.94570000     -30.54340000     -70.54460000
C      -45.16210000     -32.22310000     -69.44510000
C      -44.70940000     -31.50780000     -68.31760000
C      -45.07090000     -33.64100000     -69.13570000
H      -44.84180000     -30.41210000     -68.27870000
C      -44.76890000     -33.86250000     -67.78340000
C      -45.25310000     -34.89290000     -69.86790000
C      -45.03500000     -36.01880000     -69.10530000
S      -44.49280000     -32.46290000     -66.82710000
S      -44.69860000     -35.56050000     -67.41420000
H      -44.96830000     -37.04960000     -69.38440000
