40
Properties=species:S:1:pos:R:3 #=T CELL(abcABC):=T 1.889726e+02=T 90.00000=T Traj:=T positionsangstrom=T Step:=T 0=T Bead:=T pbc="F F F"
C      -45.57700000     -31.66340000     -73.72850000
C      -44.81790000     -30.88210000     -72.81520000
C      -45.42610000     -30.56200000     -71.58940000
C      -46.66350000     -31.12560000     -71.24350000
C      -47.31110000     -32.02960000     -72.12610000
C      -46.77100000     -32.25410000     -73.35730000
H      -45.15810000     -31.87160000     -74.66400000
H      -44.91870000     -29.95070000     -70.91670000
H      -48.28190000     -32.47300000     -71.86580000
H      -47.20800000     -32.82590000     -74.19580000
C      -47.34310000     -30.76400000     -69.97290000
H      -48.37510000     -30.43280000     -70.12740000
H      -46.75270000     -30.02610000     -69.44640000
C      -43.44110000     -30.44980000     -73.13060000
H      -43.31190000     -29.83130000     -74.07770000
H      -42.89850000     -29.82280000     -72.38690000
S      -47.59550000     -32.25800000     -68.83730000
S      -42.31970000     -31.93670000     -73.42690000
C      -45.81250000     -32.48380000     -68.32650000
H      -45.15230000     -31.94120000     -68.98240000
H      -45.62400000     -32.20710000     -67.27930000
C      -42.05750000     -32.62110000     -71.75660000
H      -41.49920000     -31.89910000     -71.13180000
H      -41.37230000     -33.49300000     -71.85240000
C      -43.32240000     -33.09280000     -71.00930000
H      -42.92240000     -33.45680000     -70.03020000
H      -44.11300000     -32.35920000     -70.83960000
C      -45.35660000     -33.96330000     -68.21000000
H      -45.87530000     -34.37170000     -67.41390000
H      -44.25390000     -33.98150000     -67.87100000
C      -45.62690000     -34.84180000     -69.39910000
C      -46.56960000     -35.77000000     -69.18810000
C      -45.07970000     -34.91860000     -70.76340000
H      -47.16300000     -35.92320000     -68.33140000
C      -45.67190000     -35.92510000     -71.47280000
C      -43.98740000     -34.32080000     -71.49940000
C      -43.89230000     -34.88600000     -72.75830000
S      -46.90940000     -36.78500000     -70.59940000
S      -44.94000000     -36.27010000     -72.98480000
H      -43.14350000     -34.65350000     -73.54080000
