40
Properties=species:S:1:pos:R:3 #=T CELL(abcABC):=T 1.889726e+02=T 90.00000=T Traj:=T positionsangstrom=T Step:=T 0=T Bead:=T pbc="F F F"
C      -45.11430000     -34.77180000     -75.02010000
C      -46.33790000     -34.27540000     -74.49770000
C      -46.43610000     -32.93150000     -74.25100000
C      -45.29040000     -32.01010000     -74.41680000
C      -44.08850000     -32.60950000     -74.84090000
C      -44.00260000     -33.95540000     -75.14770000
H      -45.10310000     -35.84190000     -75.25300000
H      -47.45770000     -32.37490000     -74.08380000
H      -43.16150000     -31.98390000     -74.88660000
H      -43.05310000     -34.43850000     -75.37480000
C      -45.47590000     -30.57590000     -73.95570000
H      -46.18040000     -30.56960000     -73.16920000
H      -45.71770000     -29.99510000     -74.88940000
C      -47.55530000     -35.21340000     -74.28110000
H      -48.39370000     -34.64650000     -74.02390000
H      -47.90630000     -35.73130000     -75.16140000
S      -44.17480000     -29.77560000     -72.82320000
S      -47.22200000     -36.48680000     -73.02730000
C      -44.11990000     -30.93700000     -71.39090000
H      -43.49020000     -31.83350000     -71.63190000
H      -43.44180000     -30.45570000     -70.59340000
C      -46.97610000     -35.62010000     -71.40730000
H      -47.02930000     -36.44720000     -70.64210000
H      -47.82740000     -34.91630000     -71.25520000
C      -45.65990000     -34.82560000     -71.35930000
H      -44.81370000     -35.40880000     -71.84920000
H      -45.72570000     -33.96560000     -71.98730000
C      -45.46220000     -31.23280000     -70.67190000
H      -46.06250000     -31.83430000     -71.32850000
H      -46.00620000     -30.29940000     -70.59830000
C      -45.21400000     -32.02320000     -69.34620000
C      -45.01790000     -31.31520000     -68.17150000
C      -45.02960000     -33.40940000     -69.15840000
H      -44.95440000     -30.26470000     -68.09470000
C      -44.65760000     -33.70020000     -67.86080000
C      -45.16890000     -34.64600000     -69.92830000
C      -44.97660000     -35.81150000     -69.25640000
S      -44.63960000     -32.31780000     -66.77600000
S      -44.61230000     -35.42030000     -67.56570000
H      -45.08320000     -36.77770000     -69.75080000
