40
Properties=species:S:1:pos:R:3 #=T CELL(abcABC):=T 1.889726e+02=T 90.00000=T Traj:=T positionsangstrom=T Step:=T 0=T Bead:=T pbc="F F F"
C      -42.40720000     -34.25450000     -73.66020000
C      -43.50130000     -35.10840000     -73.44430000
C      -44.75510000     -34.72640000     -73.92370000
C      -44.94730000     -33.52540000     -74.63740000
C      -43.89510000     -32.64960000     -74.88800000
C      -42.62110000     -33.02860000     -74.37570000
H      -41.39560000     -34.57350000     -73.43120000
H      -45.66820000     -35.35700000     -73.72460000
H      -43.95090000     -31.68860000     -75.42650000
H      -41.73750000     -32.48640000     -74.38280000
C      -46.28040000     -33.22020000     -75.23560000
H      -46.78050000     -34.09100000     -75.70750000
H      -46.22020000     -32.40880000     -76.00670000
C      -43.51360000     -36.48440000     -72.69920000
H      -44.49800000     -36.87280000     -72.65020000
H      -42.91390000     -37.18960000     -73.23460000
S      -47.31420000     -32.37710000     -73.98420000
S      -42.83900000     -36.48330000     -70.99230000
C      -47.95960000     -33.63260000     -72.80950000
H      -48.98980000     -33.29130000     -72.54950000
H      -48.14760000     -34.57040000     -73.32240000
C      -43.48360000     -34.85330000     -70.38580000
H      -43.91670000     -34.36710000     -71.31140000
H      -42.66230000     -34.20770000     -70.05470000
C      -44.51960000     -34.98190000     -69.32690000
H      -45.32730000     -35.47620000     -69.80180000
H      -44.10660000     -35.67260000     -68.55770000
C      -47.14190000     -33.97820000     -71.50190000
H      -46.19870000     -34.34310000     -71.92180000
H      -47.60190000     -34.82780000     -71.02660000
C      -46.90120000     -32.81640000     -70.54520000
C      -47.72430000     -31.72600000     -70.57660000
C      -46.05310000     -32.78910000     -69.32420000
H      -48.49860000     -31.57770000     -71.30230000
C      -46.27000000     -31.63140000     -68.53970000
C      -45.00630000     -33.66860000     -68.71790000
C      -44.47740000     -33.07970000     -67.61260000
S      -47.51510000     -30.64040000     -69.17210000
S      -45.18810000     -31.55490000     -67.17680000
H      -43.63580000     -33.50460000     -66.96940000
