40
Properties=species:S:1:pos:R:3 #=T CELL(abcABC):=T 1.889726e+02=T 90.00000=T Traj:=T positionsangstrom=T Step:=T 0=T Bead:=T pbc="F F F"
C      -45.59000000     -31.88000000     -73.80820000
C      -44.86910000     -31.07390000     -72.88820000
C      -45.55590000     -30.67810000     -71.74620000
C      -46.83800000     -31.15500000     -71.44260000
C      -47.49070000     -32.01830000     -72.29740000
C      -46.83180000     -32.43180000     -73.48510000
H      -45.15130000     -32.31260000     -74.71550000
H      -45.17250000     -30.04610000     -70.88110000
H      -48.47050000     -32.42590000     -72.16010000
H      -47.40090000     -33.03400000     -74.18760000
C      -47.51780000     -30.73590000     -70.11500000
H      -48.56680000     -30.49960000     -70.33580000
H      -47.06660000     -29.88290000     -69.64740000
C      -43.44560000     -30.53530000     -73.20880000
H      -43.46960000     -30.18670000     -74.28190000
H      -43.05250000     -29.77740000     -72.43480000
S      -47.46110000     -32.17640000     -68.90720000
S      -42.22780000     -32.02930000     -73.25490000
C      -45.68610000     -32.36160000     -68.66870000
H      -45.06680000     -32.20240000     -69.56450000
H      -45.38380000     -31.63080000     -67.94210000
C      -41.85480000     -32.83500000     -71.63410000
H      -41.18690000     -32.10820000     -71.04330000
H      -41.21780000     -33.69030000     -71.82870000
C      -43.16870000     -33.10180000     -70.78000000
H      -43.01630000     -33.31870000     -69.76800000
H      -43.79110000     -32.14570000     -70.70760000
C      -45.37020000     -33.80130000     -68.18920000
H      -45.90200000     -33.95650000     -67.22300000
H      -44.32160000     -33.93890000     -68.03520000
C      -45.74240000     -34.79900000     -69.29420000
C      -46.58930000     -35.81780000     -69.11190000
C      -45.05340000     -34.85690000     -70.61520000
H      -47.11600000     -35.98290000     -68.18590000
C      -45.66760000     -35.90920000     -71.35670000
C      -44.03150000     -34.21990000     -71.34580000
C      -43.94620000     -34.66680000     -72.67580000
S      -46.82470000     -36.83780000     -70.53040000
S      -45.03610000     -36.08790000     -72.99010000
H      -43.29350000     -34.29030000     -73.51760000
