40
Properties=species:S:1:pos:R:3 #=T CELL(abcABC):=T 1.889726e+02=T 90.00000=T Traj:=T positionsangstrom=T Step:=T 0=T Bead:=T pbc="F F F"
C      -45.48140000     -31.89150000     -73.77470000
C      -44.83360000     -30.93770000     -72.94300000
C      -45.52260000     -30.63560000     -71.74830000
C      -46.79230000     -31.05580000     -71.45660000
C      -47.45070000     -31.94670000     -72.34320000
C      -46.79600000     -32.29210000     -73.50870000
H      -45.15840000     -32.22280000     -74.77050000
H      -45.06380000     -29.85480000     -71.13070000
H      -48.41530000     -32.43990000     -72.09930000
H      -47.22510000     -33.03090000     -74.13780000
C      -47.37120000     -30.74950000     -70.07490000
H      -48.34300000     -30.30650000     -70.24190000
H      -46.77410000     -29.92900000     -69.60010000
C      -43.40340000     -30.46040000     -73.16770000
H      -43.41260000     -29.88090000     -74.02690000
H      -43.03290000     -29.84510000     -72.32910000
S      -47.52750000     -32.19520000     -68.86190000
S      -42.24320000     -31.83050000     -73.44350000
C      -45.73680000     -32.44120000     -68.43960000
H      -45.29090000     -31.86870000     -69.22910000
H      -45.50050000     -31.84040000     -67.53940000
C      -41.97310000     -32.63060000     -71.74260000
H      -41.47910000     -31.90220000     -71.18570000
H      -41.28430000     -33.48060000     -71.85370000
C      -43.25370000     -33.13930000     -70.82370000
H      -42.76550000     -33.39920000     -69.82720000
H      -43.93600000     -32.32800000     -70.67700000
C      -45.41510000     -33.94660000     -68.19770000
H      -45.75660000     -34.24930000     -67.17200000
H      -44.31090000     -34.00870000     -68.04950000
C      -45.75280000     -34.90460000     -69.28620000
C      -46.68580000     -35.85440000     -69.08990000
C      -45.06270000     -35.00940000     -70.62080000
H      -47.29010000     -36.01510000     -68.24000000
C      -45.63210000     -36.09410000     -71.33160000
C      -44.00750000     -34.30810000     -71.32820000
C      -43.84170000     -34.81790000     -72.62770000
S      -46.92200000     -36.91800000     -70.48560000
S      -44.95910000     -36.11290000     -72.97970000
H      -43.18210000     -34.37460000     -73.42790000
