40
Properties=species:S:1:pos:R:3 #=T CELL(abcABC):=T 1.889726e+02=T 90.00000=T Traj:=T positionsangstrom=T Step:=T 0=T Bead:=T pbc="F F F"
C      -45.59050000     -32.14970000     -73.26940000
C      -45.11860000     -31.16780000     -72.38580000
C      -45.94940000     -30.74370000     -71.33370000
C      -47.13320000     -31.40790000     -71.13750000
C      -47.63070000     -32.42050000     -71.98060000
C      -46.82880000     -32.82140000     -73.07180000
H      -44.92820000     -32.39420000     -74.04520000
H      -45.63020000     -29.99300000     -70.66240000
H      -48.55310000     -32.90430000     -71.78780000
H      -47.05180000     -33.60270000     -73.87230000
C      -47.92260000     -31.26050000     -69.83570000
H      -49.04250000     -31.33220000     -70.02550000
H      -47.81910000     -30.30990000     -69.38770000
C      -43.73850000     -30.49610000     -72.54330000
H      -43.93300000     -29.52070000     -73.12450000
H      -43.34170000     -30.33260000     -71.52680000
S      -47.66100000     -32.49590000     -68.53780000
S      -42.51870000     -31.62960000     -73.40290000
C      -45.80150000     -32.43480000     -68.44100000
H      -45.40580000     -31.79190000     -69.28110000
H      -45.59350000     -31.90890000     -67.54090000
C      -41.83380000     -32.47660000     -71.86300000
H      -41.25870000     -31.66610000     -71.31320000
H      -41.03510000     -33.17710000     -72.09530000
C      -42.82850000     -33.03530000     -70.91180000
H      -42.28710000     -33.44450000     -70.07550000
H      -43.56490000     -32.26870000     -70.47760000
C      -45.16770000     -33.79720000     -68.45050000
H      -45.43440000     -34.38480000     -67.59190000
H      -44.02210000     -33.73040000     -68.36410000
C      -45.60770000     -34.65970000     -69.67380000
C      -46.71200000     -35.43490000     -69.63760000
C      -44.78850000     -34.90940000     -70.92040000
H      -47.51890000     -35.40050000     -68.94080000
C      -45.44140000     -35.79640000     -71.75240000
C      -43.64630000     -34.24800000     -71.50970000
C      -43.34080000     -34.82580000     -72.69900000
S      -46.96200000     -36.36660000     -71.17300000
S      -44.46240000     -36.13860000     -73.12810000
H      -42.50650000     -34.79950000     -73.40290000
