40
Properties=species:S:1:pos:R:3 #=T CELL(abcABC):=T 1.889726e+02=T 90.00000=T Traj:=T positionsangstrom=T Step:=T 0=T Bead:=T pbc="F F F"
C      -42.50070000     -34.40410000     -73.54860000
C      -43.58260000     -35.35570000     -73.57620000
C      -44.81050000     -34.99080000     -74.10780000
C      -45.04960000     -33.69980000     -74.65850000
C      -43.94840000     -32.86450000     -74.91840000
C      -42.72080000     -33.21250000     -74.30880000
H      -41.50900000     -34.50150000     -73.09770000
H      -45.59300000     -35.74700000     -73.90070000
H      -44.10880000     -32.02460000     -75.66450000
H      -41.91970000     -32.49080000     -74.25010000
C      -46.39390000     -33.21070000     -75.13120000
H      -46.98740000     -33.95710000     -75.57190000
H      -46.23550000     -32.42400000     -75.87830000
C      -43.42380000     -36.62840000     -72.71910000
H      -44.42060000     -37.02650000     -72.56740000
H      -42.68470000     -37.34840000     -73.25580000
S      -47.40070000     -32.32540000     -73.86170000
S      -42.68880000     -36.27780000     -71.07020000
C      -47.80890000     -33.73230000     -72.73020000
H      -48.77670000     -33.49060000     -72.29530000
H      -47.80220000     -34.65280000     -73.33720000
C      -43.43920000     -34.72360000     -70.38010000
H      -43.83550000     -34.16760000     -71.21310000
H      -42.58120000     -34.13930000     -70.01230000
C      -44.54210000     -34.91090000     -69.35370000
H      -45.46000000     -35.51550000     -69.66860000
H      -44.11640000     -35.50170000     -68.52890000
C      -46.80130000     -33.82390000     -71.65370000
H      -45.77860000     -33.74650000     -72.08980000
H      -46.73480000     -34.85540000     -71.20780000
C      -46.83780000     -32.73670000     -70.53300000
C      -47.73270000     -31.69600000     -70.52200000
C      -45.98220000     -32.72420000     -69.37090000
H      -48.49730000     -31.57220000     -71.26920000
C      -46.20080000     -31.54890000     -68.61240000
C      -45.04080000     -33.59370000     -68.74500000
C      -44.67020000     -33.19430000     -67.47760000
S      -47.44650000     -30.52550000     -69.30370000
S      -45.35590000     -31.58360000     -67.05660000
H      -43.74300000     -33.59510000     -66.93100000
