40
Properties=species:S:1:pos:R:3 #=T CELL(abcABC):=T 1.889726e+02=T 90.00000=T Traj:=T positionsangstrom=T Step:=T 0=T Bead:=T pbc="F F F"
C      -45.81380000     -32.27160000     -73.57740000
C      -45.30770000     -31.23640000     -72.77390000
C      -46.03940000     -30.95490000     -71.58080000
C      -47.17780000     -31.63170000     -71.22610000
C      -47.60190000     -32.68590000     -72.01120000
C      -46.92900000     -32.97920000     -73.18510000
H      -45.27280000     -32.61350000     -74.37380000
H      -45.67400000     -30.11710000     -70.98600000
H      -48.47220000     -33.22190000     -71.81130000
H      -47.14620000     -33.95560000     -73.81810000
C      -47.93580000     -31.27080000     -69.88500000
H      -48.98040000     -31.34370000     -70.12000000
H      -47.77770000     -30.25810000     -69.57880000
C      -44.02430000     -30.43650000     -73.15280000
H      -44.31400000     -29.90450000     -74.12920000
H      -43.72000000     -29.69520000     -72.33980000
S      -47.54160000     -32.41800000     -68.50900000
S      -42.56880000     -31.54420000     -73.39800000
C      -45.68110000     -32.45230000     -68.31820000
H      -45.25050000     -31.89170000     -69.17760000
H      -45.51220000     -31.85690000     -67.36430000
C      -42.03030000     -32.03960000     -71.66520000
H      -41.74330000     -31.10200000     -71.20160000
H      -41.10890000     -32.60250000     -71.85750000
C      -43.08610000     -32.84430000     -70.81580000
H      -42.71850000     -33.04390000     -69.80950000
H      -43.81980000     -32.06360000     -70.68470000
C      -45.16500000     -33.90750000     -68.24980000
H      -45.64050000     -34.30050000     -67.35910000
H      -44.09240000     -33.84830000     -68.12550000
C      -45.46370000     -34.75930000     -69.52700000
C      -46.56470000     -35.60430000     -69.55110000
C      -44.75110000     -34.81900000     -70.79850000
H      -47.22930000     -35.69440000     -68.72050000
C      -45.16840000     -35.99230000     -71.57510000
C      -43.74140000     -34.06970000     -71.44750000
C      -43.38220000     -34.56660000     -72.64030000
S      -46.77460000     -36.57540000     -70.97070000
S      -44.35580000     -35.97020000     -73.11180000
H      -42.67480000     -34.15870000     -73.36590000
