40
Properties=species:S:1:pos:R:3 #=T CELL(abcABC):=T 1.889726e+02=T 90.00000=T Traj:=T positionsangstrom=T Step:=T 0=T Bead:=T pbc="F F F"
C      -43.69500000     -34.67540000     -72.76120000
C      -43.71120000     -35.23380000     -71.47370000
C      -43.29040000     -34.47360000     -70.38500000
C      -42.95880000     -33.09650000     -70.49850000
C      -42.92030000     -32.50800000     -71.78400000
C      -43.33290000     -33.33360000     -72.95720000
H      -43.98770000     -35.28600000     -73.60030000
H      -43.19840000     -35.03600000     -69.51120000
H      -42.53470000     -31.52660000     -71.89610000
H      -43.20320000     -32.87460000     -73.94100000
C      -42.60720000     -32.25710000     -69.25640000
H      -41.80810000     -31.54010000     -69.42860000
H      -42.19610000     -32.97560000     -68.56240000
C      -44.13490000     -36.65150000     -71.24240000
H      -43.64300000     -37.26960000     -71.98820000
H      -43.83350000     -37.05270000     -70.27560000
S      -44.04870000     -31.29540000     -68.61200000
S      -45.90170000     -36.96140000     -71.40210000
C      -45.36950000     -32.56820000     -68.41260000
H      -45.10570000     -33.48420000     -69.02300000
H      -45.51850000     -32.81050000     -67.33210000
C      -46.66680000     -35.86040000     -70.01100000
H      -45.80370000     -35.23770000     -69.60040000
H      -47.19640000     -36.36880000     -69.10920000
C      -47.71800000     -35.02610000     -70.77030000
H      -48.52030000     -35.82820000     -71.11520000
H      -48.17450000     -34.42890000     -70.02480000
C      -46.74910000     -32.16210000     -69.09550000
H      -47.25370000     -31.26620000     -68.62280000
H      -47.44970000     -32.99000000     -69.06600000
C      -46.43770000     -31.90790000     -70.57100000
C      -45.95770000     -30.66790000     -70.96070000
C      -46.62430000     -32.83240000     -71.73580000
H      -45.81210000     -29.85360000     -70.30760000
C      -46.22200000     -32.22170000     -72.91870000
C      -47.16390000     -34.13570000     -71.90910000
C      -47.36970000     -34.43800000     -73.24030000
S      -45.65540000     -30.59680000     -72.67880000
S      -46.66940000     -33.16310000     -74.28760000
H      -47.96200000     -35.18210000     -73.69260000
