40
Properties=species:S:1:pos:R:3 #=T CELL(abcABC):=T 1.889726e+02=T 90.00000=T Traj:=T positionsangstrom=T Step:=T 0=T Bead:=T pbc="F F F"
C      -45.67230000     -31.93740000     -73.43770000
C      -45.10710000     -31.06140000     -72.48390000
C      -45.82010000     -30.64290000     -71.35470000
C      -47.06830000     -31.24240000     -71.18140000
C      -47.65010000     -32.06630000     -72.16640000
C      -46.98140000     -32.43490000     -73.31560000
H      -44.99940000     -32.11710000     -74.33040000
H      -45.47580000     -29.84160000     -70.65730000
H      -48.74900000     -32.30870000     -72.09940000
H      -47.40110000     -33.07790000     -74.05700000
C      -47.80600000     -30.95890000     -69.87420000
H      -48.86020000     -30.91760000     -70.04780000
H      -47.47110000     -30.00930000     -69.35590000
C      -43.69930000     -30.51680000     -72.66210000
H      -43.59840000     -29.63750000     -73.34910000
H      -43.29750000     -30.10090000     -71.62300000
S      -47.57120000     -32.31470000     -68.63480000
S      -42.26880000     -31.60600000     -73.26180000
C      -45.71010000     -32.36430000     -68.58210000
H      -45.42850000     -31.92180000     -69.50250000
H      -45.27690000     -31.80110000     -67.68820000
C      -41.80110000     -32.62580000     -71.82420000
H      -41.03210000     -32.16560000     -71.21740000
H      -41.29150000     -33.46150000     -72.41390000
C      -42.92610000     -33.30800000     -70.87010000
H      -42.47660000     -33.81510000     -69.97380000
H      -43.63320000     -32.56120000     -70.56060000
C      -45.19080000     -33.83960000     -68.51770000
H      -45.51810000     -34.34510000     -67.60030000
H      -44.10670000     -33.73090000     -68.45630000
C      -45.61690000     -34.83270000     -69.61480000
C      -46.64910000     -35.72160000     -69.42410000
C      -44.95000000     -34.90610000     -70.90830000
H      -47.28620000     -35.76830000     -68.54200000
C      -45.55230000     -35.99250000     -71.63720000
C      -43.77110000     -34.34270000     -71.54250000
C      -43.57080000     -34.80650000     -72.81490000
S      -46.84770000     -36.75590000     -70.84390000
S      -44.74630000     -36.17040000     -73.15770000
H      -42.92820000     -34.27790000     -73.49880000
