40
Properties=species:S:1:pos:R:3 #=T CELL(abcABC):=T 1.889726e+02=T 90.00000=T Traj:=T positionsangstrom=T Step:=T 0=T Bead:=T pbc="F F F"
C      -45.56270000     -31.86730000     -73.52880000
C      -44.99980000     -30.96050000     -72.64420000
C      -45.70220000     -30.55320000     -71.46090000
C      -46.95380000     -31.08930000     -71.24730000
C      -47.56800000     -31.89910000     -72.18390000
C      -46.88510000     -32.31270000     -73.33850000
H      -44.87470000     -32.26960000     -74.31410000
H      -45.14040000     -30.02730000     -70.64990000
H      -48.53680000     -32.36810000     -72.02700000
H      -47.29690000     -33.08730000     -73.95160000
C      -47.57900000     -30.83540000     -69.94900000
H      -48.64230000     -30.70400000     -70.07870000
H      -47.22630000     -29.89370000     -69.55010000
C      -43.60810000     -30.50520000     -72.77030000
H      -43.57930000     -29.73670000     -73.52750000
H      -43.34000000     -30.04370000     -71.84930000
S      -47.44650000     -32.26950000     -68.81770000
S      -42.40450000     -31.80090000     -73.31160000
C      -45.66560000     -32.57090000     -68.62650000
H      -45.06990000     -32.31080000     -69.52350000
H      -45.35130000     -31.87180000     -67.89020000
C      -41.92180000     -32.63850000     -71.73280000
H      -41.31210000     -31.99770000     -71.11670000
H      -41.28160000     -33.49330000     -72.01300000
C      -43.11900000     -33.15860000     -70.86190000
H      -42.69870000     -33.38650000     -69.86610000
H      -43.84880000     -32.33720000     -70.78130000
C      -45.35580000     -34.01220000     -68.30450000
H      -46.07520000     -34.35260000     -67.43520000
H      -44.43390000     -34.16030000     -67.84000000
C      -45.55890000     -34.97160000     -69.47860000
C      -46.58420000     -35.87400000     -69.30380000
C      -44.89440000     -34.98120000     -70.69800000
H      -47.25980000     -36.09040000     -68.41990000
C      -45.54250000     -35.94070000     -71.52100000
C      -43.84510000     -34.31700000     -71.44910000
C      -43.76370000     -34.81800000     -72.76330000
S      -46.88690000     -36.76520000     -70.77880000
S      -44.85420000     -36.09610000     -73.14190000
H      -42.98800000     -34.55140000     -73.47580000
