40
Properties=species:S:1:pos:R:3 #=T CELL(abcABC):=T 1.889726e+02=T 90.00000=T Traj:=T positionsangstrom=T Step:=T 0=T Bead:=T pbc="F F F"
C      -44.71450000     -35.15160000     -72.88960000
C      -44.33640000     -35.84290000     -71.71060000
C      -43.39060000     -35.26350000     -70.85240000
C      -42.77110000     -34.05140000     -71.16340000
C      -43.21350000     -33.33220000     -72.25800000
C      -44.15580000     -33.90960000     -73.13160000
H      -45.54310000     -35.44000000     -73.57470000
H      -43.04960000     -35.79710000     -70.00920000
H      -42.65680000     -32.38360000     -72.54040000
H      -44.30760000     -33.29090000     -73.97220000
C      -42.01840000     -33.38490000     -70.02440000
H      -40.88600000     -33.41240000     -70.08040000
H      -42.06880000     -33.85990000     -69.01650000
C      -45.09480000     -37.06020000     -71.30700000
H      -45.47740000     -37.70180000     -72.18300000
H      -44.42350000     -37.68950000     -70.71130000
S      -42.55780000     -31.69030000     -69.62100000
S      -46.61680000     -36.70910000     -70.31370000
C      -44.24280000     -32.03790000     -68.83550000
H      -44.54450000     -33.02200000     -69.21730000
H      -44.14740000     -32.15890000     -67.71690000
C      -46.31050000     -35.19370000     -69.31650000
H      -45.34360000     -34.85720000     -69.52630000
H      -46.38970000     -35.48490000     -68.32940000
C      -47.33690000     -34.09190000     -69.57960000
H      -48.31930000     -34.36180000     -69.43430000
H      -47.13000000     -33.43430000     -68.75120000
C      -45.29700000     -31.06240000     -69.28680000
H      -44.94660000     -30.05650000     -69.15710000
H      -46.24750000     -31.18830000     -68.73170000
C      -45.55850000     -31.26530000     -70.83710000
C      -45.22920000     -30.33550000     -71.75640000
C      -46.49360000     -32.32130000     -71.42960000
H      -44.64370000     -29.47760000     -71.57500000
C      -46.65700000     -32.03790000     -72.79190000
C      -47.23110000     -33.48890000     -70.96630000
C      -47.99740000     -33.99090000     -72.00890000
S      -45.78090000     -30.66080000     -73.44910000
S      -47.78640000     -33.12290000     -73.55390000
H      -48.72300000     -34.81730000     -72.00370000
