40
Properties=species:S:1:pos:R:3 #=T CELL(abcABC):=T 1.889726e+02=T 90.00000=T Traj:=T positionsangstrom=T Step:=T 0=T Bead:=T pbc="F F F"
C      -44.08710000     -35.13720000     -72.60480000
C      -43.93930000     -35.56490000     -71.25480000
C      -43.26790000     -34.75330000     -70.39790000
C      -42.72590000     -33.50990000     -70.75090000
C      -42.77940000     -33.13900000     -72.08590000
C      -43.52740000     -33.91280000     -72.96440000
H      -44.60360000     -35.73420000     -73.32920000
H      -42.92500000     -35.11760000     -69.39280000
H      -42.15970000     -32.23510000     -72.45090000
H      -43.62720000     -33.62330000     -74.04230000
C      -42.03650000     -32.57830000     -69.81650000
H      -41.40140000     -31.92430000     -70.30590000
H      -41.52340000     -33.05910000     -68.95160000
C      -44.48080000     -36.84030000     -70.70710000
H      -44.12310000     -37.70970000     -71.21140000
H      -44.22800000     -36.97720000     -69.66640000
S      -43.33260000     -31.40970000     -69.02430000
S      -46.36340000     -36.82500000     -71.01090000
C      -44.68850000     -32.54450000     -68.62830000
H      -44.47160000     -33.50600000     -69.07640000
H      -44.76680000     -32.61420000     -67.54260000
C      -46.81340000     -35.46850000     -69.91430000
H      -45.93940000     -34.79230000     -69.72140000
H      -47.16340000     -35.84170000     -68.91250000
C      -47.90260000     -34.58090000     -70.46830000
H      -48.73880000     -35.22500000     -70.83530000
H      -48.48170000     -33.96450000     -69.69240000
C      -46.02100000     -31.97740000     -69.13080000
H      -46.28170000     -31.07560000     -68.58210000
H      -46.81140000     -32.68250000     -68.88670000
C      -46.06310000     -31.62900000     -70.59350000
C      -45.40810000     -30.60790000     -71.15920000
C      -46.77610000     -32.51270000     -71.58940000
H      -44.96800000     -29.75120000     -70.68010000
C      -46.54500000     -32.00420000     -72.90420000
C      -47.50540000     -33.71560000     -71.63610000
C      -47.80630000     -34.15200000     -72.97740000
S      -45.59000000     -30.57000000     -72.96350000
S      -47.27700000     -33.00100000     -74.15100000
H      -48.45840000     -35.00080000     -73.19760000
