40
Properties=species:S:1:pos:R:3 #=T CELL(abcABC):=T 1.889726e+02=T 90.00000=T Traj:=T positionsangstrom=T Step:=T 0=T Bead:=T pbc="F F F"
C      -48.29370000     -37.45570000     -70.61350000
C      -47.14520000     -36.64220000     -70.87020000
C      -47.24840000     -35.61510000     -71.87260000
C      -48.48530000     -35.29510000     -72.46440000
C      -49.53610000     -36.11070000     -72.16430000
C      -49.50950000     -37.13620000     -71.20310000
H      -48.22390000     -38.23660000     -69.89950000
H      -46.37430000     -35.15610000     -72.24770000
H      -50.46380000     -35.95040000     -72.60610000
H      -50.44250000     -37.68670000     -71.15490000
C      -48.66370000     -34.21260000     -73.56440000
H      -49.13190000     -33.34410000     -73.05300000
H      -49.39290000     -34.57160000     -74.32530000
C      -45.84960000     -37.05060000     -70.31380000
H      -45.82170000     -38.14670000     -70.06710000
H      -45.04390000     -36.86080000     -71.05830000
S      -47.18290000     -33.50060000     -74.28700000
S      -45.37920000     -36.00790000     -68.71240000
C      -46.47170000     -32.39030000     -72.92510000
H      -46.99250000     -31.40620000     -73.03350000
H      -46.70330000     -32.71760000     -71.87510000
C      -43.94460000     -34.96490000     -69.20700000
H      -43.15770000     -35.48680000     -69.66590000
H      -43.54230000     -34.54450000     -68.25590000
C      -44.45030000     -33.81970000     -70.14710000
H      -44.56380000     -34.26310000     -71.14900000
H      -45.50850000     -33.56410000     -69.89630000
C      -45.03910000     -32.29860000     -73.22230000
H      -45.01770000     -31.98790000     -74.29570000
H      -44.47140000     -33.30600000     -73.24100000
C      -44.15360000     -31.25810000     -72.52050000
C      -43.76140000     -30.09070000     -73.07040000
C      -43.59170000     -31.47330000     -71.12130000
H      -43.89330000     -29.85560000     -74.11980000
C      -42.79140000     -30.34790000     -70.79490000
C      -43.66040000     -32.50860000     -70.11740000
C      -42.77090000     -32.16800000     -69.09350000
S      -42.52910000     -29.15910000     -72.10320000
S      -41.94730000     -30.53520000     -69.23360000
H      -42.85860000     -32.55570000     -68.10000000
