40
Properties=species:S:1:pos:R:3 #=T CELL(abcABC):=T 1.889726e+02=T 90.00000=T Traj:=T positionsangstrom=T Step:=T 0=T Bead:=T pbc="F F F"
C      -45.17850000     -35.59010000     -72.76460000
C      -44.60350000     -35.84770000     -71.53010000
C      -43.53770000     -35.07230000     -70.98650000
C      -42.94620000     -34.16120000     -71.81610000
C      -43.56620000     -33.80000000     -73.03620000
C      -44.69170000     -34.46400000     -73.50360000
H      -46.09640000     -36.20620000     -73.09340000
H      -43.05830000     -35.36990000     -70.04090000
H      -43.05830000     -33.06710000     -73.74030000
H      -45.21760000     -34.09100000     -74.35630000
C      -41.66940000     -33.37840000     -71.33740000
H      -41.08570000     -33.12810000     -72.21090000
H      -40.97270000     -33.85660000     -70.61250000
C      -45.13740000     -36.80370000     -70.47800000
H      -45.02810000     -37.83480000     -70.86310000
H      -44.55310000     -36.77390000     -69.57580000
S      -42.21310000     -31.75870000     -70.55340000
S      -46.94770000     -36.46670000     -70.02460000
C      -43.45530000     -32.34670000     -69.30910000
H      -43.65570000     -33.41160000     -69.46420000
H      -42.88570000     -32.27210000     -68.33400000
C      -46.57010000     -34.92720000     -68.96670000
H      -45.56620000     -34.61720000     -69.20670000
H      -46.69550000     -35.25080000     -67.94750000
C      -47.61740000     -33.84910000     -69.34070000
H      -48.55900000     -34.28380000     -69.32640000
H      -47.49090000     -33.17550000     -68.50620000
C      -44.76010000     -31.57880000     -69.17570000
H      -44.61140000     -30.67290000     -68.60480000
H      -45.44830000     -32.23300000     -68.62870000
C      -45.39280000     -31.35800000     -70.57740000
C      -44.80580000     -30.56500000     -71.47170000
C      -46.46820000     -32.18630000     -71.11420000
H      -44.05210000     -29.84020000     -71.30920000
C      -46.54020000     -31.96680000     -72.44830000
C      -47.43960000     -33.19050000     -70.64950000
C      -48.36210000     -33.58410000     -71.68280000
S      -45.43720000     -30.85030000     -73.11140000
S      -47.93910000     -32.72660000     -73.20440000
H      -49.06910000     -34.36310000     -71.59350000
