40
Properties=species:S:1:pos:R:3 #=T CELL(abcABC):=T 1.889726e+02=T 90.00000=T Traj:=T positionsangstrom=T Step:=T 0=T Bead:=T pbc="F F F"
C      -45.41680000     -35.53220000     -72.72020000
C      -44.72370000     -35.97240000     -71.58850000
C      -43.56580000     -35.25100000     -71.12890000
C      -43.09530000     -34.18470000     -71.90140000
C      -43.70850000     -33.84720000     -73.10670000
C      -44.84690000     -34.56030000     -73.52790000
H      -46.33280000     -35.94430000     -73.03380000
H      -42.94940000     -35.63110000     -70.32260000
H      -43.37120000     -33.15980000     -73.79890000
H      -45.50490000     -34.29220000     -74.40640000
C      -41.85240000     -33.40840000     -71.63240000
H      -41.54240000     -32.84480000     -72.46480000
H      -41.07860000     -34.09460000     -71.36170000
C      -45.33470000     -37.04570000     -70.68470000
H      -45.76570000     -37.85300000     -71.34070000
H      -44.55550000     -37.51350000     -70.06400000
S      -41.79980000     -32.20510000     -70.24690000
S      -46.83720000     -36.43250000     -69.66470000
C      -43.42760000     -32.38060000     -69.38890000
H      -43.76490000     -33.33990000     -69.65750000
H      -43.27680000     -32.40690000     -68.31000000
C      -46.35550000     -34.89670000     -68.75910000
H      -45.25870000     -34.73200000     -68.96140000
H      -46.55400000     -35.09730000     -67.66350000
C      -47.12380000     -33.59010000     -69.18020000
H      -48.14030000     -33.59830000     -68.81590000
H      -46.64800000     -32.70440000     -68.70270000
C      -44.45470000     -31.27170000     -69.57110000
H      -44.06220000     -30.31450000     -69.45180000
H      -45.15140000     -31.36460000     -68.68300000
C      -45.24100000     -31.25900000     -70.84350000
C      -44.99460000     -30.32960000     -71.77300000
C      -46.29040000     -32.19090000     -71.24260000
H      -44.24400000     -29.51380000     -71.83710000
C      -46.76120000     -31.84210000     -72.52610000
C      -47.08100000     -33.24480000     -70.68530000
C      -48.17580000     -33.59910000     -71.49910000
S      -45.99490000     -30.42370000     -73.23910000
S      -48.01720000     -32.88960000     -73.06910000
H      -48.82170000     -34.45520000     -71.25750000
