40
Properties=species:S:1:pos:R:3 #=T CELL(abcABC):=T 1.889726e+02=T 90.00000=T Traj:=T positionsangstrom=T Step:=T 0=T Bead:=T pbc="F F F"
C      -45.29290000     -35.61450000     -72.65000000
C      -44.56320000     -35.95960000     -71.47550000
C      -43.39070000     -35.24970000     -71.10660000
C      -42.95280000     -34.19140000     -71.91860000
C      -43.55200000     -34.01040000     -73.21030000
C      -44.69920000     -34.70630000     -73.56290000
H      -46.30260000     -35.98440000     -72.84980000
H      -42.92260000     -35.49040000     -70.14060000
H      -43.28840000     -33.12110000     -73.81130000
H      -45.19230000     -34.59430000     -74.48260000
C      -41.79920000     -33.25250000     -71.60320000
H      -41.26060000     -32.85540000     -72.47620000
H      -41.04950000     -33.90400000     -71.13540000
C      -45.26050000     -36.91430000     -70.63470000
H      -45.62320000     -37.79410000     -71.18930000
H      -44.61790000     -37.27130000     -69.80140000
S      -42.16210000     -31.93380000     -70.40430000
S      -46.87050000     -36.39510000     -69.84340000
C      -43.52370000     -32.41330000     -69.21500000
H      -43.88540000     -33.35750000     -69.53640000
H      -43.07320000     -32.54020000     -68.24110000
C      -46.44880000     -34.79080000     -68.96920000
H      -45.43610000     -34.41100000     -69.26270000
H      -46.52230000     -34.98810000     -67.85420000
C      -47.43750000     -33.64330000     -69.23530000
H      -48.53070000     -33.86940000     -68.87600000
H      -47.08920000     -32.76190000     -68.64560000
C      -44.68140000     -31.44570000     -69.27220000
H      -44.35830000     -30.41260000     -69.02920000
H      -45.38620000     -31.65760000     -68.57320000
C      -45.33490000     -31.36570000     -70.64670000
C      -44.72580000     -30.64940000     -71.60050000
C      -46.44650000     -32.14630000     -71.14290000
H      -43.93710000     -29.97030000     -71.37870000
C      -46.62660000     -31.88150000     -72.49540000
C      -47.44750000     -33.08550000     -70.62940000
C      -48.39010000     -33.44080000     -71.63550000
S      -45.53390000     -30.70920000     -73.13980000
S      -48.01130000     -32.77930000     -73.15890000
H      -49.34980000     -33.90290000     -71.46530000
