40
Properties=species:S:1:pos:R:3 #=T CELL(abcABC):=T 1.889726e+02=T 90.00000=T Traj:=T positionsangstrom=T Step:=T 0=T Bead:=T pbc="F F F"
C      -45.34020000     -35.26480000     -73.26390000
C      -44.94920000     -35.73050000     -72.01880000
C      -43.77020000     -35.29170000     -71.43110000
C      -42.89640000     -34.36500000     -72.08440000
C      -43.32670000     -33.91680000     -73.32900000
C      -44.54300000     -34.29200000     -73.89000000
H      -46.27190000     -35.54470000     -73.68120000
H      -43.47570000     -35.77060000     -70.44220000
H      -42.75710000     -33.20280000     -73.94700000
H      -44.79680000     -33.80050000     -74.86800000
C      -41.65300000     -33.84040000     -71.38150000
H      -40.85940000     -33.96380000     -72.05740000
H      -41.51610000     -34.35460000     -70.43430000
C      -45.75740000     -36.76500000     -71.31700000
H      -46.46810000     -37.24710000     -72.04360000
H      -45.04960000     -37.48820000     -70.91510000
S      -41.91310000     -31.97780000     -70.93510000
S      -46.87730000     -36.25840000     -69.99670000
C      -43.01240000     -32.26090000     -69.49390000
H      -43.29120000     -33.30450000     -69.52290000
H      -42.58270000     -32.08600000     -68.48510000
C      -45.98050000     -35.05930000     -68.93750000
H      -44.95370000     -34.88840000     -69.21650000
H      -45.93960000     -35.53110000     -67.99540000
C      -46.77900000     -33.73420000     -68.72850000
H      -47.72730000     -33.90500000     -68.13790000
H      -46.13050000     -32.99340000     -68.20450000
C      -44.22760000     -31.34380000     -69.49560000
H      -43.99780000     -30.29220000     -69.30430000
H      -44.93490000     -31.71080000     -68.64100000
C      -45.01920000     -31.43830000     -70.79420000
C      -44.86560000     -30.54660000     -71.84790000
C      -46.29460000     -32.18580000     -70.84120000
H      -44.09100000     -29.94270000     -72.17620000
C      -46.96620000     -31.94420000     -72.03750000
C      -47.13230000     -33.01940000     -69.98740000
C      -48.32640000     -33.42830000     -70.62740000
S      -46.08370000     -30.94640000     -73.13590000
S      -48.47530000     -32.72360000     -72.24440000
H      -49.08860000     -34.00870000     -70.13630000
