40
Properties=species:S:1:pos:R:3 #=T CELL(abcABC):=T 1.889726e+02=T 90.00000=T Traj:=T positionsangstrom=T Step:=T 0=T Bead:=T pbc="F F F"
C      -48.08360000     -37.41300000     -70.76120000
C      -47.01300000     -36.62340000     -71.20250000
C      -47.19730000     -35.57470000     -72.08730000
C      -48.43940000     -35.13510000     -72.41570000
C      -49.54030000     -35.87830000     -71.94460000
C      -49.34830000     -37.03040000     -71.19630000
H      -47.95540000     -38.12660000     -69.90580000
H      -46.31340000     -34.94480000     -72.37500000
H      -50.53710000     -35.43170000     -72.21700000
H      -50.14050000     -37.44190000     -70.57380000
C      -48.63180000     -33.89720000     -73.37520000
H      -48.96240000     -33.06780000     -72.69410000
H      -49.52110000     -34.10240000     -73.94360000
C      -45.70330000     -36.87860000     -70.53670000
H      -45.44160000     -37.89910000     -70.25010000
H      -44.80070000     -36.50070000     -71.10380000
S      -47.15200000     -33.47070000     -74.37520000
S      -45.67390000     -36.01930000     -68.89540000
C      -46.18250000     -32.35100000     -73.01050000
H      -46.37760000     -31.31260000     -73.40300000
H      -46.66130000     -32.52520000     -71.99570000
C      -44.24550000     -34.82630000     -69.09400000
H      -43.38590000     -35.46110000     -69.36190000
H      -44.09000000     -34.40670000     -68.14520000
C      -44.48390000     -33.77810000     -70.17480000
H      -44.35280000     -34.27840000     -71.12540000
H      -45.48330000     -33.41530000     -70.15480000
C      -44.72300000     -32.49410000     -73.25630000
H      -44.60410000     -32.17370000     -74.34740000
H      -44.28350000     -33.47580000     -73.29020000
C      -43.97370000     -31.40760000     -72.46570000
C      -43.75100000     -30.18410000     -72.96390000
C      -43.33610000     -31.66900000     -71.20350000
H      -44.09790000     -29.70900000     -73.87380000
C      -42.69920000     -30.52580000     -70.70850000
C      -43.50420000     -32.65180000     -70.16610000
C      -42.93590000     -32.21880000     -68.95620000
S      -42.69490000     -29.26610000     -71.90850000
S      -42.16890000     -30.63850000     -69.10540000
H      -42.63710000     -32.85490000     -68.14380000
