40
Properties=species:S:1:pos:R:3 #=T CELL(abcABC):=T 1.889726e+02=T 90.00000=T Traj:=T positionsangstrom=T Step:=T 0=T Bead:=T pbc="F F F"
C      -45.25760000     -35.67910000     -72.76350000
C      -44.62790000     -35.85860000     -71.43560000
C      -43.49970000     -35.15110000     -71.18190000
C      -43.11980000     -34.06410000     -71.98400000
C      -43.70660000     -33.89720000     -73.28380000
C      -44.78510000     -34.73550000     -73.62230000
H      -46.08600000     -36.27060000     -73.05820000
H      -43.01350000     -35.41810000     -70.21140000
H      -43.30020000     -33.22600000     -73.95990000
H      -45.21140000     -34.76330000     -74.63200000
C      -41.77310000     -33.49200000     -71.47590000
H      -41.14220000     -32.99730000     -72.26900000
H      -41.27630000     -34.35910000     -71.06460000
C      -45.20070000     -36.86010000     -70.48840000
H      -45.47180000     -37.83250000     -70.94680000
H      -44.41670000     -37.03620000     -69.74240000
S      -42.01430000     -32.18690000     -70.26070000
S      -46.86080000     -36.29770000     -69.72820000
C      -43.59270000     -32.54700000     -69.30290000
H      -43.95520000     -33.51680000     -69.68790000
H      -43.37960000     -32.69740000     -68.21610000
C      -46.28820000     -34.75030000     -68.96300000
H      -45.34800000     -34.54940000     -69.35260000
H      -46.07600000     -35.02450000     -67.93770000
C      -47.30910000     -33.62610000     -69.21830000
H      -48.32980000     -33.98570000     -68.92970000
H      -47.15860000     -32.78200000     -68.59660000
C      -44.66790000     -31.44690000     -69.42360000
H      -44.08800000     -30.50740000     -69.17300000
H      -45.38430000     -31.57280000     -68.59010000
C      -45.29420000     -31.28780000     -70.76730000
C      -44.91920000     -30.38920000     -71.70830000
C      -46.36940000     -32.14330000     -71.19190000
H      -43.97710000     -29.76880000     -71.62070000
C      -46.75000000     -31.77700000     -72.50730000
C      -47.19100000     -33.19960000     -70.64610000
C      -48.13090000     -33.72650000     -71.57810000
S      -45.77730000     -30.53690000     -73.23850000
S      -48.00210000     -32.78350000     -73.09910000
H      -48.84200000     -34.51600000     -71.33790000
