40
Properties=species:S:1:pos:R:3 #=T CELL(abcABC):=T 1.889726e+02=T 90.00000=T Traj:=T positionsangstrom=T Step:=T 0=T Bead:=T pbc="F F F"
C      -45.21910000     -35.44410000     -72.68990000
C      -44.57220000     -35.83950000     -71.48830000
C      -43.41260000     -35.20510000     -71.01480000
C      -42.83420000     -34.12590000     -71.77000000
C      -43.42150000     -33.84140000     -73.02060000
C      -44.68330000     -34.36540000     -73.41780000
H      -46.10500000     -36.05850000     -73.04240000
H      -43.16650000     -35.40570000     -69.97480000
H      -42.97820000     -33.04400000     -73.60780000
H      -45.07260000     -33.96300000     -74.39120000
C      -41.69740000     -33.34900000     -71.18200000
H      -41.09570000     -33.05690000     -72.06590000
H      -41.11690000     -33.92960000     -70.43370000
C      -45.30720000     -36.88240000     -70.66980000
H      -45.41870000     -37.81410000     -71.29010000
H      -44.73840000     -37.21820000     -69.79010000
S      -42.20450000     -31.71830000     -70.39110000
S      -46.97220000     -36.39710000     -70.08580000
C      -43.33170000     -32.26410000     -69.06190000
H      -43.42990000     -33.35250000     -69.09090000
H      -42.94000000     -31.94170000     -68.10300000
C      -46.62260000     -34.96190000     -69.01850000
H      -45.54370000     -34.66230000     -69.00920000
H      -46.73950000     -35.05290000     -67.91810000
C      -47.53530000     -33.75850000     -69.37680000
H      -48.57510000     -33.96420000     -69.21830000
H      -47.32730000     -32.84560000     -68.69160000
C      -44.75930000     -31.57580000     -69.15270000
H      -44.69170000     -30.56780000     -68.72520000
H      -45.47140000     -32.16820000     -68.48230000
C      -45.37560000     -31.48720000     -70.58820000
C      -44.91820000     -30.57590000     -71.46050000
C      -46.43290000     -32.30010000     -71.20510000
H      -44.13890000     -29.85690000     -71.32790000
C      -46.59620000     -31.99530000     -72.55830000
C      -47.36780000     -33.30050000     -70.76690000
C      -48.28030000     -33.67590000     -71.80320000
S      -45.62660000     -30.67230000     -73.06320000
S      -47.86200000     -32.94260000     -73.34700000
H      -48.94680000     -34.52750000     -71.78190000
