40
Properties=species:S:1:pos:R:3 #=T CELL(abcABC):=T 1.889726e+02=T 90.00000=T Traj:=T positionsangstrom=T Step:=T 0=T Bead:=T pbc="F F F"
C      -45.36960000     -35.20900000     -73.17090000
C      -44.90250000     -35.65260000     -71.95980000
C      -43.64170000     -35.28480000     -71.56180000
C      -42.90180000     -34.33910000     -72.29730000
C      -43.46390000     -33.74500000     -73.42450000
C      -44.64720000     -34.23120000     -73.91600000
H      -46.29240000     -35.61550000     -73.58060000
H      -43.28670000     -35.65030000     -70.63690000
H      -42.94130000     -33.01400000     -73.99250000
H      -45.10560000     -33.74810000     -74.73950000
C      -41.62960000     -33.68790000     -71.74700000
H      -40.84040000     -33.41970000     -72.48360000
H      -41.20760000     -34.40150000     -71.01870000
C      -45.63840000     -36.79030000     -71.22170000
H      -46.14600000     -37.42740000     -71.90870000
H      -44.85310000     -37.33300000     -70.63990000
S      -41.86030000     -32.06500000     -70.89720000
S      -46.93620000     -36.18510000     -70.02630000
C      -43.06200000     -32.45900000     -69.53420000
H      -43.52410000     -33.42810000     -69.80860000
H      -42.56090000     -32.60620000     -68.58450000
C      -45.87810000     -35.09640000     -68.99600000
H      -44.91450000     -34.90600000     -69.53060000
H      -45.65840000     -35.64590000     -68.04220000
C      -46.68630000     -33.77540000     -68.73430000
H      -47.43170000     -33.89010000     -68.00670000
H      -45.95050000     -33.20260000     -68.26010000
C      -44.23670000     -31.36280000     -69.51260000
H      -43.83450000     -30.38540000     -69.34590000
H      -44.86410000     -31.60270000     -68.60850000
C      -45.05530000     -31.50610000     -70.74460000
C      -44.81120000     -30.69580000     -71.82460000
C      -46.34040000     -32.23590000     -70.78420000
H      -44.00390000     -30.02470000     -72.06670000
C      -46.98570000     -31.97300000     -71.99070000
C      -47.15440000     -33.09240000     -69.97760000
C      -48.39010000     -33.40380000     -70.53060000
S      -46.08260000     -30.87620000     -73.03140000
S      -48.53160000     -32.72780000     -72.16380000
H      -49.10330000     -34.04030000     -70.08230000
