40
Properties=species:S:1:pos:R:3 #=T CELL(abcABC):=T 1.889726e+02=T 90.00000=T Traj:=T positionsangstrom=T Step:=T 0=T Bead:=T pbc="F F F"
C      -44.52870000     -31.75180000     -72.93210000
C      -44.48550000     -31.00170000     -71.67830000
C      -45.65250000     -30.91300000     -70.87820000
C      -46.83350000     -31.38310000     -71.40940000
C      -46.89180000     -32.10100000     -72.59620000
C      -45.71280000     -32.39130000     -73.28670000
H      -43.60220000     -31.87740000     -73.43040000
H      -45.64800000     -30.30960000     -70.01260000
H      -47.84230000     -32.54120000     -72.98390000
H      -45.83860000     -32.85750000     -74.25530000
C      -48.08600000     -31.14630000     -70.60210000
H      -48.80520000     -30.86050000     -71.34650000
H      -47.98550000     -30.32230000     -69.86590000
C      -43.18290000     -30.36070000     -71.28070000
H      -42.84010000     -29.55050000     -71.95650000
H      -43.33950000     -29.89550000     -70.29500000
S      -48.66920000     -32.63510000     -69.65910000
S      -41.81550000     -31.56730000     -71.04310000
C      -47.14140000     -33.05660000     -68.83060000
H      -46.30790000     -32.49970000     -69.23160000
H      -47.18960000     -32.83930000     -67.75700000
C      -42.34250000     -32.72200000     -69.71170000
H      -42.34800000     -32.24610000     -68.75310000
H      -41.49910000     -33.50820000     -69.60340000
C      -43.67890000     -33.40930000     -69.71580000
H      -43.90570000     -33.87300000     -68.73290000
H      -44.50270000     -32.66960000     -69.78770000
C      -46.80650000     -34.56440000     -69.10620000
H      -47.73910000     -35.10330000     -68.75300000
H      -45.94960000     -34.83960000     -68.54630000
C      -46.50220000     -35.00850000     -70.55980000
C      -47.36180000     -35.77990000     -71.27050000
C      -45.21270000     -34.81720000     -71.26460000
H      -48.35070000     -36.12220000     -70.92690000
C      -45.19200000     -35.49510000     -72.48200000
C      -43.84070000     -34.33550000     -70.92070000
C      -42.92730000     -34.75800000     -71.92370000
S      -46.71500000     -36.33950000     -72.80070000
S      -43.70820000     -35.64080000     -73.27170000
H      -41.89520000     -34.46350000     -71.86410000
