40
Properties=species:S:1:pos:R:3 #=T CELL(abcABC):=T 1.889726e+02=T 90.00000=T Traj:=T positionsangstrom=T Step:=T 0=T Bead:=T pbc="F F F"
C      -45.60360000     -35.11550000     -72.98630000
C      -44.79650000     -35.69100000     -71.99960000
C      -43.51250000     -35.24550000     -71.81450000
C      -43.08080000     -34.14420000     -72.53770000
C      -43.95500000     -33.39190000     -73.34260000
C      -45.19460000     -33.97670000     -73.64200000
H      -46.59810000     -35.53310000     -73.23010000
H      -42.76900000     -35.79890000     -71.15220000
H      -43.60240000     -32.51220000     -73.87780000
H      -45.87880000     -33.55660000     -74.42140000
C      -41.63920000     -33.63770000     -72.22520000
H      -41.24890000     -33.23770000     -73.11580000
H      -41.05830000     -34.48990000     -71.94640000
C      -45.38210000     -36.83550000     -71.20410000
H      -45.69120000     -37.63620000     -71.94800000
H      -44.62800000     -37.30420000     -70.53830000
S      -41.75230000     -32.23800000     -70.93390000
S      -46.80330000     -36.38330000     -70.08550000
C      -42.93340000     -32.84170000     -69.66710000
H      -43.24960000     -33.83290000     -69.81210000
H      -42.29800000     -32.95870000     -68.77750000
C      -45.96470000     -35.08720000     -69.07370000
H      -45.08420000     -34.77160000     -69.69890000
H      -45.64950000     -35.57380000     -68.14710000
C      -46.83930000     -33.89580000     -68.75240000
H      -47.74300000     -34.11350000     -68.25690000
H      -46.24520000     -33.30010000     -68.11150000
C      -44.07210000     -31.83260000     -69.40270000
H      -43.53800000     -30.85320000     -69.11570000
H      -44.57020000     -32.21860000     -68.51210000
C      -45.05560000     -31.59200000     -70.55580000
C      -44.82230000     -30.67790000     -71.51980000
C      -46.31050000     -32.24720000     -70.80570000
H      -43.79280000     -30.13780000     -71.48170000
C      -46.94100000     -31.83560000     -71.95450000
C      -47.11840000     -33.17320000     -70.07550000
C      -48.33800000     -33.43150000     -70.66530000
S      -46.00730000     -30.63900000     -72.80780000
S      -48.55270000     -32.50180000     -72.14380000
H      -49.14610000     -34.10170000     -70.36170000
