40
Properties=species:S:1:pos:R:3 #=T CELL(abcABC):=T 1.889726e+02=T 90.00000=T Traj:=T positionsangstrom=T Step:=T 0=T Bead:=T pbc="F F F"
C      -45.79840000     -34.24360000     -73.57920000
C      -45.04500000     -35.30330000     -73.01160000
C      -43.66360000     -35.04390000     -72.70470000
C      -43.05660000     -33.80220000     -72.89340000
C      -43.82670000     -32.80260000     -73.52930000
C      -45.16010000     -33.05540000     -73.84790000
H      -46.86000000     -34.31270000     -73.70820000
H      -43.07740000     -35.84960000     -72.32630000
H      -43.35250000     -31.87610000     -73.80660000
H      -45.81700000     -32.28590000     -74.28220000
C      -41.64510000     -33.67820000     -72.35830000
H      -40.90190000     -33.12400000     -72.88080000
H      -41.27760000     -34.69050000     -72.14220000
C      -45.79360000     -36.57780000     -72.82990000
H      -46.17640000     -36.92830000     -73.80900000
H      -45.08650000     -37.32850000     -72.48910000
S      -41.63860000     -32.78130000     -70.72370000
S      -47.08650000     -36.42620000     -71.60000000
C      -42.79890000     -33.79110000     -69.67550000
H      -43.19720000     -34.60480000     -70.24490000
H      -42.22060000     -34.20990000     -68.85050000
C      -45.97330000     -35.96850000     -70.14110000
H      -44.99050000     -35.48570000     -70.53340000
H      -45.81860000     -36.84790000     -69.52030000
C      -46.73110000     -34.88580000     -69.25310000
H      -47.65540000     -35.27490000     -68.91030000
H      -46.16120000     -34.89590000     -68.33630000
C      -43.90770000     -32.83080000     -69.11200000
H      -43.38450000     -32.16920000     -68.51380000
H      -44.54450000     -33.30750000     -68.38300000
C      -44.76520000     -32.08100000     -70.06450000
C      -44.43910000     -30.90770000     -70.70410000
C      -46.19830000     -32.50900000     -70.31230000
H      -43.51960000     -30.27100000     -70.58190000
C      -46.92720000     -31.47690000     -70.92000000
C      -47.06920000     -33.58720000     -69.89470000
C      -48.37360000     -33.33350000     -70.14330000
S      -45.91220000     -30.16370000     -71.38600000
S      -48.60960000     -31.75880000     -71.02070000
H      -49.18790000     -33.97440000     -69.88240000
