40
Properties=species:S:1:pos:R:3 #=T CELL(abcABC):=T 1.889726e+02=T 90.00000=T Traj:=T positionsangstrom=T Step:=T 0=T Bead:=T pbc="F F F"
C      -45.68590000     -34.51400000     -73.42160000
C      -44.99710000     -35.47890000     -72.68150000
C      -43.65230000     -35.15660000     -72.22750000
C      -43.06230000     -33.93360000     -72.61360000
C      -43.69820000     -33.10290000     -73.55960000
C      -44.99800000     -33.35170000     -73.87570000
H      -46.72600000     -34.55560000     -73.65920000
H      -43.24420000     -35.80920000     -71.53720000
H      -43.20540000     -32.13100000     -73.81680000
H      -45.57660000     -32.60560000     -74.46010000
C      -41.71990000     -33.43640000     -72.22230000
H      -41.44560000     -32.66390000     -72.95250000
H      -40.92770000     -34.14700000     -72.10710000
C      -45.50740000     -36.81400000     -72.20740000
H      -45.88750000     -37.35060000     -73.08010000
H      -44.72210000     -37.37300000     -71.68390000
S      -41.59670000     -32.55000000     -70.56590000
S      -46.98650000     -36.65260000     -71.07530000
C      -42.97300000     -33.43080000     -69.51370000
H      -43.50280000     -34.21670000     -69.97930000
H      -42.37950000     -33.84840000     -68.66850000
C      -46.24340000     -35.90040000     -69.53780000
H      -45.18580000     -35.76800000     -69.69880000
H      -46.41840000     -36.61480000     -68.83050000
C      -46.98530000     -34.56920000     -69.04050000
H      -48.03110000     -34.77470000     -68.77150000
H      -46.46180000     -34.16970000     -68.15450000
C      -44.03300000     -32.37220000     -69.08120000
H      -43.47160000     -31.50010000     -68.77040000
H      -44.60500000     -32.83550000     -68.26480000
C      -44.92330000     -31.85520000     -70.12790000
C      -44.57120000     -30.74100000     -70.77910000
C      -46.29190000     -32.38010000     -70.47650000
H      -43.65800000     -30.07630000     -70.62280000
C      -46.87320000     -31.54430000     -71.41410000
C      -47.21410000     -33.45500000     -70.06820000
C      -48.45880000     -33.34820000     -70.66900000
S      -45.90230000     -30.14980000     -71.85090000
S      -48.44570000     -32.05670000     -71.90400000
H      -49.29620000     -34.00190000     -70.33620000
