40
Properties=species:S:1:pos:R:3 #=T CELL(abcABC):=T 1.889726e+02=T 90.00000=T Traj:=T positionsangstrom=T Step:=T 0=T Bead:=T pbc="F F F"
C      -45.82080000     -34.79930000     -73.61460000
C      -45.25090000     -35.73130000     -72.68530000
C      -44.01720000     -35.54670000     -72.14340000
C      -43.41700000     -34.30760000     -72.32220000
C      -43.98280000     -33.38490000     -73.16550000
C      -45.08990000     -33.69120000     -73.93870000
H      -46.72950000     -34.99910000     -74.16870000
H      -43.58640000     -36.25020000     -71.48140000
H      -43.50710000     -32.37200000     -73.19120000
H      -45.51410000     -33.05930000     -74.76670000
C      -42.04580000     -33.90060000     -71.80280000
H      -41.39610000     -33.69170000     -72.68320000
H      -41.53390000     -34.66730000     -71.23040000
C      -46.03600000     -36.95460000     -72.12190000
H      -46.88480000     -37.20810000     -72.73910000
H      -45.45600000     -37.87640000     -72.15210000
S      -42.03860000     -32.32710000     -70.81310000
S      -46.75830000     -36.69750000     -70.42280000
C      -42.98230000     -32.87190000     -69.25530000
H      -43.35540000     -33.84560000     -69.53680000
H      -42.33840000     -33.09080000     -68.42400000
C      -45.59820000     -35.56070000     -69.48390000
H      -44.75910000     -35.34270000     -70.09800000
H      -45.20190000     -36.06830000     -68.61540000
C      -46.37750000     -34.33000000     -69.07220000
H      -47.29640000     -34.65940000     -68.55550000
H      -45.85630000     -33.63580000     -68.33980000
C      -44.07530000     -31.79230000     -68.90910000
H      -43.42050000     -30.97160000     -68.56050000
H      -44.68340000     -32.06840000     -68.02710000
C      -44.95410000     -31.43480000     -70.12440000
C      -44.75250000     -30.36220000     -70.94000000
C      -46.10910000     -32.13770000     -70.57660000
H      -44.00850000     -29.60130000     -70.59250000
C      -46.65780000     -31.56200000     -71.70150000
C      -46.86210000     -33.32950000     -70.12580000
C      -47.94170000     -33.57220000     -70.99510000
S      -45.92610000     -30.06490000     -72.18800000
S      -48.19240000     -32.38360000     -72.21790000
H      -48.73470000     -34.36990000     -70.83530000
