40
Properties=species:S:1:pos:R:3 #=T CELL(abcABC):=T 1.889726e+02=T 90.00000=T Traj:=T positionsangstrom=T Step:=T 0=T Bead:=T pbc="F F F"
C      -45.85670000     -34.75380000     -73.44290000
C      -45.21920000     -35.69040000     -72.61250000
C      -43.90980000     -35.42560000     -72.23580000
C      -43.32740000     -34.19870000     -72.45570000
C      -43.97800000     -33.20730000     -73.28570000
C      -45.24500000     -33.50280000     -73.75550000
H      -46.96140000     -34.72840000     -73.53080000
H      -43.28430000     -36.17020000     -71.75010000
H      -43.53640000     -32.19910000     -73.56620000
H      -45.79540000     -32.80130000     -74.41950000
C      -42.04150000     -33.98080000     -71.81350000
H      -41.20360000     -33.77620000     -72.52550000
H      -41.78620000     -34.89900000     -71.23200000
C      -45.87820000     -36.95990000     -72.19660000
H      -46.65340000     -37.38420000     -72.81940000
H      -45.03740000     -37.66920000     -72.05630000
S      -41.97440000     -32.48840000     -70.75190000
S      -46.76460000     -36.71060000     -70.56510000
C      -43.12410000     -32.87900000     -69.26940000
H      -43.62330000     -33.76850000     -69.60120000
H      -42.51140000     -33.07210000     -68.33040000
C      -45.75570000     -35.66280000     -69.49200000
H      -44.90850000     -35.32430000     -70.15280000
H      -45.49030000     -36.33000000     -68.64210000
C      -46.54150000     -34.38180000     -68.99540000
H      -47.45120000     -34.87770000     -68.61140000
H      -46.08610000     -33.96670000     -68.13650000
C      -44.02660000     -31.73940000     -68.89330000
H      -43.48460000     -30.84720000     -68.52250000
H      -44.68300000     -32.07590000     -68.12200000
C      -44.97180000     -31.36960000     -70.05120000
C      -44.72810000     -30.30560000     -70.83960000
C      -46.22570000     -32.08480000     -70.49990000
H      -43.84510000     -29.69780000     -70.68830000
C      -46.71080000     -31.49440000     -71.65450000
C      -46.83440000     -33.37130000     -70.12160000
C      -47.92790000     -33.63280000     -70.99090000
S      -45.89230000     -30.09260000     -72.19780000
S      -48.13970000     -32.40730000     -72.27680000
H      -48.56710000     -34.49170000     -70.96310000
