40
Properties=species:S:1:pos:R:3 #=T CELL(abcABC):=T 1.889726e+02=T 90.00000=T Traj:=T positionsangstrom=T Step:=T 0=T Bead:=T pbc="F F F"
C      -47.03810000     -34.19900000     -69.39360000
C      -46.78140000     -35.38810000     -70.20700000
C      -47.33080000     -35.53630000     -71.47570000
C      -48.33590000     -34.62370000     -71.87690000
C      -48.60790000     -33.47920000     -71.15870000
C      -47.90600000     -33.24940000     -69.95840000
H      -46.45050000     -34.04070000     -68.47590000
H      -47.10940000     -36.46930000     -72.04300000
H      -49.34860000     -32.77890000     -71.58440000
H      -48.11900000     -32.34380000     -69.32830000
C      -48.88660000     -34.75310000     -73.28580000
H      -49.69670000     -34.06180000     -73.44780000
H      -49.22130000     -35.70260000     -73.65960000
C      -45.89950000     -36.48060000     -69.50950000
H      -45.76860000     -36.09520000     -68.51960000
H      -46.37330000     -37.47850000     -69.48580000
S      -47.56710000     -34.23200000     -74.54490000
S      -44.31000000     -36.75380000     -70.32670000
C      -46.78670000     -32.77330000     -73.70750000
H      -46.71900000     -32.04500000     -74.50690000
H      -47.46570000     -32.30820000     -73.03180000
C      -43.45270000     -35.12220000     -70.01700000
H      -42.70900000     -35.29210000     -69.22080000
H      -44.18900000     -34.33760000     -69.66280000
C      -42.84930000     -34.63030000     -71.24230000
H      -41.80950000     -34.97400000     -71.37460000
H      -43.39260000     -34.88920000     -72.12130000
C      -45.46070000     -33.15750000     -73.00630000
H      -44.65670000     -33.52690000     -73.72030000
H      -45.72660000     -33.98940000     -72.35510000
C      -44.94940000     -32.03500000     -72.10610000
C      -45.64290000     -30.90570000     -71.93470000
C      -43.66770000     -32.05090000     -71.33650000
H      -46.65190000     -30.66060000     -72.23160000
C      -43.45430000     -30.83820000     -70.69670000
C      -42.69990000     -33.07900000     -71.06470000
C      -41.73990000     -32.57130000     -70.23040000
S      -44.80340000     -29.70070000     -70.91530000
S      -41.97670000     -30.92600000     -69.81120000
H      -40.89790000     -33.07160000     -69.80520000
