40
Properties=species:S:1:pos:R:3 #=T CELL(abcABC):=T 1.889726e+02=T 90.00000=T Traj:=T positionsangstrom=T Step:=T 0=T Bead:=T pbc="F F F"
C      -43.90090000     -31.75640000     -72.46450000
C      -44.28840000     -30.99210000     -71.37070000
C      -45.65130000     -30.73700000     -71.21570000
C      -46.56510000     -31.18710000     -72.13860000
C      -46.18540000     -31.99320000     -73.19050000
C      -44.82640000     -32.30340000     -73.37060000
H      -42.79300000     -31.97820000     -72.56080000
H      -46.06910000     -30.13030000     -70.33080000
H      -46.94610000     -32.44180000     -73.82740000
H      -44.50050000     -32.92410000     -74.26440000
C      -48.05680000     -31.00360000     -71.84240000
H      -48.76670000     -30.79280000     -72.62710000
H      -48.12600000     -30.07600000     -71.19340000
C      -43.34690000     -30.65540000     -70.20510000
H      -42.89450000     -29.69230000     -70.31660000
H      -43.83280000     -30.54200000     -69.24620000
S      -48.84120000     -32.35500000     -71.01510000
S      -41.99410000     -31.88590000     -70.04630000
C      -47.69430000     -32.79980000     -69.64870000
H      -46.76230000     -32.28690000     -69.70620000
H      -47.97770000     -32.54060000     -68.65480000
C      -42.80840000     -33.03120000     -68.79910000
H      -42.96200000     -32.43970000     -67.78240000
H      -42.10330000     -33.88740000     -68.74530000
C      -44.18820000     -33.51000000     -69.26520000
H      -44.60810000     -34.17110000     -68.49570000
H      -44.91700000     -32.70880000     -69.29880000
C      -47.41530000     -34.33420000     -69.57420000
H      -48.37680000     -34.89620000     -69.41570000
H      -46.75240000     -34.41200000     -68.71380000
C      -46.75670000     -34.92090000     -70.81760000
C      -47.48180000     -35.69190000     -71.68450000
C      -45.34630000     -34.87400000     -71.15820000
H      -48.54330000     -35.88000000     -71.50480000
C      -45.07310000     -35.59830000     -72.31110000
C      -44.15320000     -34.32260000     -70.54590000
C      -43.04190000     -34.73640000     -71.22340000
S      -46.46020000     -36.40290000     -73.03150000
S      -43.35770000     -35.74630000     -72.55380000
H      -41.98780000     -34.50670000     -70.99280000
