40
Properties=species:S:1:pos:R:3 #=T CELL(abcABC):=T 1.889726e+02=T 90.00000=T Traj:=T positionsangstrom=T Step:=T 0=T Bead:=T pbc="F F F"
C      -46.60380000     -33.54770000     -73.92050000
C      -45.99290000     -34.75500000     -73.49430000
C      -44.62880000     -34.75440000     -73.23260000
C      -43.83810000     -33.59520000     -73.38790000
C      -44.48040000     -32.43260000     -73.67600000
C      -45.84240000     -32.40870000     -74.00120000
H      -47.72610000     -33.57330000     -73.98620000
H      -44.19820000     -35.72060000     -72.95180000
H      -43.87120000     -31.52110000     -73.73000000
H      -46.25520000     -31.40800000     -74.14150000
C      -42.29900000     -33.67090000     -73.20780000
H      -41.91430000     -32.85360000     -73.84040000
H      -41.92400000     -34.63060000     -73.66450000
C      -46.82760000     -35.99540000     -73.35410000
H      -47.66380000     -35.74740000     -74.06260000
H      -46.37870000     -36.97580000     -73.65680000
S      -41.62190000     -33.49960000     -71.47020000
S      -47.49700000     -36.19960000     -71.61680000
C      -42.75790000     -34.46030000     -70.39640000
H      -43.50460000     -34.83170000     -71.07740000
H      -42.14690000     -35.29300000     -70.14310000
C      -46.20270000     -36.01570000     -70.34760000
H      -45.28630000     -35.74430000     -70.89370000
H      -46.11550000     -37.01110000     -69.86960000
C      -46.60810000     -35.07300000     -69.15230000
H      -47.45650000     -35.36240000     -68.62980000
H      -45.75710000     -35.12710000     -68.40040000
C      -43.33350000     -33.76960000     -69.19970000
H      -42.45640000     -33.44750000     -68.61620000
H      -43.90730000     -34.56560000     -68.64610000
C      -44.25520000     -32.56850000     -69.46330000
C      -43.77910000     -31.24270000     -69.56520000
C      -45.72500000     -32.67760000     -69.84840000
H      -42.77410000     -30.91370000     -69.59140000
C      -46.16440000     -31.41930000     -70.19080000
C      -46.79040000     -33.63360000     -69.70790000
C      -48.00070000     -33.14540000     -70.22630000
S      -45.00120000     -30.21310000     -70.13730000
S      -47.86230000     -31.45590000     -70.75470000
H      -48.88010000     -33.62130000     -70.55680000
