40
Properties=species:S:1:pos:R:3 #=T CELL(abcABC):=T 1.889726e+02=T 90.00000=T Traj:=T positionsangstrom=T Step:=T 0=T Bead:=T pbc="F F F"
C      -46.49440000     -33.68120000     -73.61090000
C      -45.90810000     -34.83880000     -73.13030000
C      -44.53550000     -34.80860000     -72.96000000
C      -43.72390000     -33.67290000     -72.85460000
C      -44.41530000     -32.48460000     -73.21610000
C      -45.73890000     -32.44520000     -73.67740000
H      -47.61630000     -33.78930000     -73.72290000
H      -44.02630000     -35.81520000     -72.88630000
H      -43.86580000     -31.52660000     -73.16590000
H      -46.13280000     -31.47000000     -73.96060000
C      -42.21230000     -33.82310000     -72.70030000
H      -41.76030000     -33.22200000     -73.50490000
H      -41.86460000     -34.90040000     -72.72460000
C      -46.58730000     -36.13540000     -73.17030000
H      -47.38390000     -36.26790000     -73.95350000
H      -45.83650000     -36.90900000     -73.29220000
S      -41.50810000     -32.99170000     -71.21900000
S      -47.53080000     -36.41040000     -71.63050000
C      -42.39200000     -33.99130000     -69.92420000
H      -42.76400000     -34.89350000     -70.42910000
H      -41.59220000     -34.36150000     -69.25310000
C      -46.26070000     -36.30380000     -70.30210000
H      -45.26110000     -36.17970000     -70.65270000
H      -46.30710000     -37.17550000     -69.66590000
C      -46.63790000     -35.13720000     -69.31260000
H      -47.54080000     -35.34660000     -68.85630000
H      -45.82290000     -35.04250000     -68.50680000
C      -43.37560000     -33.29860000     -68.97190000
H      -42.83030000     -32.76250000     -68.20000000
H      -43.97410000     -33.97900000     -68.40140000
C      -44.36480000     -32.36100000     -69.65830000
C      -43.97470000     -31.10470000     -70.06740000
C      -45.82640000     -32.62560000     -69.98350000
H      -43.07670000     -30.58250000     -69.88340000
C      -46.37160000     -31.52970000     -70.62700000
C      -46.73150000     -33.67810000     -69.97540000
C      -47.97320000     -33.41510000     -70.52070000
S      -45.25590000     -30.12170000     -70.76690000
S      -47.96920000     -31.78260000     -71.15620000
H      -48.81850000     -34.08030000     -70.51900000
