40
Properties=species:S:1:pos:R:3 #=T CELL(abcABC):=T 1.889726e+02=T 90.00000=T Traj:=T positionsangstrom=T Step:=T 0=T Bead:=T pbc="F F F"
C      -43.93310000     -32.00930000     -72.32040000
C      -44.31100000     -31.12980000     -71.36180000
C      -45.67660000     -30.74780000     -71.30940000
C      -46.60010000     -31.20230000     -72.23710000
C      -46.15000000     -32.04660000     -73.29200000
C      -44.83950000     -32.50220000     -73.30220000
H      -42.93310000     -32.41820000     -72.31740000
H      -45.84560000     -29.96780000     -70.57670000
H      -46.85800000     -32.36530000     -74.12130000
H      -44.50950000     -33.19720000     -74.06430000
C      -48.05270000     -30.90120000     -72.11870000
H      -48.54370000     -30.94740000     -73.08730000
H      -48.27330000     -29.96480000     -71.61580000
C      -43.29800000     -30.56170000     -70.39120000
H      -42.70620000     -29.83240000     -71.01570000
H      -43.80850000     -29.93610000     -69.59880000
S      -48.84100000     -32.31420000     -71.13330000
S      -42.07220000     -31.73890000     -69.69560000
C      -47.62500000     -32.69310000     -69.69450000
H      -46.72600000     -31.99160000     -69.75550000
H      -48.32830000     -32.33780000     -68.85910000
C      -42.92210000     -32.90890000     -68.61660000
H      -43.34160000     -32.31750000     -67.74170000
H      -42.07660000     -33.49780000     -68.21370000
C      -44.09650000     -33.71770000     -69.20080000
H      -44.58760000     -34.29210000     -68.38140000
H      -44.79580000     -32.88680000     -69.46340000
C      -47.32360000     -34.19100000     -69.58870000
H      -48.21480000     -34.75200000     -69.35330000
H      -46.71110000     -34.33490000     -68.70200000
C      -46.66290000     -34.85840000     -70.78310000
C      -47.43370000     -35.45950000     -71.77510000
C      -45.24880000     -35.06490000     -71.07240000
H      -48.51400000     -35.50330000     -72.01120000
C      -45.05670000     -35.73420000     -72.26130000
C      -44.05200000     -34.61500000     -70.45970000
C      -42.95230000     -34.90150000     -71.16330000
S      -46.56720000     -36.27070000     -73.03400000
S      -43.38400000     -35.80100000     -72.67360000
H      -41.93020000     -34.69910000     -70.84790000
