40
Properties=species:S:1:pos:R:3 #=T CELL(abcABC):=T 1.889726e+02=T 90.00000=T Traj:=T positionsangstrom=T Step:=T 0=T Bead:=T pbc="F F F"
C      -46.59770000     -33.54670000     -73.44630000
C      -46.05920000     -34.84800000     -73.41040000
C      -44.65950000     -35.01970000     -73.49940000
C      -43.80690000     -33.86200000     -73.50010000
C      -44.38320000     -32.58170000     -73.59480000
C      -45.75310000     -32.43290000     -73.49710000
H      -47.60260000     -33.33140000     -73.21800000
H      -44.15710000     -35.96380000     -73.38820000
H      -43.70560000     -31.74060000     -73.74700000
H      -46.22520000     -31.43540000     -73.40070000
C      -42.32160000     -34.02460000     -73.44200000
H      -41.87710000     -33.34080000     -74.14380000
H      -41.96870000     -35.03630000     -73.67030000
C      -47.04650000     -35.99380000     -73.37910000
H      -47.81960000     -36.07030000     -74.16840000
H      -46.35630000     -36.88680000     -73.42070000
S      -41.77970000     -33.40680000     -71.72720000
S      -47.95640000     -36.04300000     -71.76140000
C      -42.78850000     -34.52400000     -70.61050000
H      -43.70940000     -34.71830000     -71.05750000
H      -42.36460000     -35.50970000     -70.43320000
C      -46.52630000     -36.18110000     -70.50330000
H      -45.64830000     -36.01420000     -71.14840000
H      -46.43200000     -37.15790000     -70.00720000
C      -46.57120000     -35.09520000     -69.45880000
H      -47.49390000     -35.28060000     -68.85190000
H      -45.77590000     -35.18380000     -68.78730000
C      -43.14630000     -33.74070000     -69.32370000
H      -42.32600000     -33.44150000     -68.71460000
H      -43.59840000     -34.45020000     -68.63610000
C      -44.12090000     -32.61070000     -69.62030000
C      -43.54510000     -31.34300000     -69.67110000
C      -45.52620000     -32.58350000     -69.71930000
H      -42.45060000     -31.04060000     -69.67000000
C      -46.02800000     -31.30570000     -70.06280000
C      -46.61890000     -33.56810000     -69.76810000
C      -47.84740000     -32.99340000     -70.07880000
S      -44.73580000     -30.15130000     -70.19170000
S      -47.80320000     -31.30450000     -70.22280000
H      -48.72380000     -33.48450000     -69.86590000
