40
Properties=species:S:1:pos:R:3 #=T CELL(abcABC):=T 1.889726e+02=T 90.00000=T Traj:=T positionsangstrom=T Step:=T 0=T Bead:=T pbc="F F F"
C      -46.25040000     -32.06100000     -74.38900000
C      -45.95170000     -33.43160000     -74.50000000
C      -44.70900000     -33.93760000     -74.19320000
C      -43.65410000     -33.00040000     -74.06760000
C      -43.92880000     -31.60620000     -74.13100000
C      -45.27100000     -31.13250000     -74.18290000
H      -47.23240000     -31.70280000     -74.43320000
H      -44.51230000     -35.02610000     -74.20000000
H      -43.01150000     -30.95590000     -74.25740000
H      -45.41380000     -30.10240000     -74.06280000
C      -42.25650000     -33.54460000     -73.94190000
H      -41.42650000     -32.82630000     -73.99660000
H      -42.08380000     -34.32250000     -74.69170000
C      -47.05100000     -34.43170000     -74.87790000
H      -48.05430000     -33.97730000     -75.01180000
H      -46.82660000     -34.90880000     -75.87730000
S      -42.00380000     -34.36340000     -72.27660000
S      -47.15410000     -35.89130000     -73.67880000
C      -43.03700000     -33.29510000     -71.13580000
H      -42.56350000     -32.37720000     -70.84660000
H      -44.05210000     -33.05390000     -71.54970000
C      -47.68050000     -35.04170000     -72.08810000
H      -48.23920000     -35.78390000     -71.56980000
H      -48.26640000     -34.21040000     -72.26180000
C      -46.42690000     -34.66750000     -71.24880000
H      -45.88530000     -35.54680000     -70.89930000
H      -45.62590000     -34.18250000     -71.90790000
C      -43.17950000     -34.08000000     -69.77910000
H      -42.15180000     -34.10700000     -69.37720000
H      -43.44080000     -35.13660000     -69.69890000
C      -44.20090000     -33.30500000     -68.96060000
C      -43.72220000     -32.52430000     -67.91370000
C      -45.59810000     -33.21830000     -69.14090000
H      -42.68540000     -32.48790000     -67.58360000
C      -46.11780000     -32.35260000     -68.19650000
C      -46.68510000     -33.78580000     -69.96960000
C      -47.90410000     -33.26380000     -69.70300000
S      -45.03640000     -31.62620000     -67.11080000
S      -47.91090000     -32.35530000     -68.15200000
H      -48.85840000     -33.68800000     -69.99910000
