40
Properties=species:S:1:pos:R:3 #=T CELL(abcABC):=T 1.889726e+02=T 90.00000=T Traj:=T positionsangstrom=T Step:=T 0=T Bead:=T pbc="F F F"
C      -47.88460000     -35.81520000     -68.82040000
C      -47.11600000     -36.13190000     -69.94570000
C      -47.50580000     -35.70700000     -71.20260000
C      -48.67440000     -34.93040000     -71.41570000
C      -49.42590000     -34.52310000     -70.28160000
C      -49.09560000     -35.08960000     -69.03700000
H      -47.48150000     -36.00760000     -67.89250000
H      -46.88450000     -35.96970000     -72.03830000
H      -50.39090000     -34.00660000     -70.41940000
H      -49.72680000     -34.77730000     -68.21290000
C      -49.03210000     -34.31650000     -72.74420000
H      -49.58450000     -33.36350000     -72.42810000
H      -49.77900000     -34.85890000     -73.45160000
C      -45.98760000     -37.05310000     -69.78970000
H      -45.86170000     -37.16170000     -68.68000000
H      -46.26590000     -38.08550000     -70.07850000
S      -47.62810000     -33.95120000     -73.90720000
S      -44.37520000     -36.74270000     -70.80600000
C      -46.75390000     -32.56280000     -73.01940000
H      -47.10280000     -31.62500000     -73.42330000
H      -47.05170000     -32.63060000     -71.97100000
C      -44.21200000     -34.89930000     -70.59270000
H      -44.17400000     -34.70520000     -69.51470000
H      -45.05110000     -34.44980000     -70.99800000
C      -42.99320000     -34.38300000     -71.36300000
H      -42.11800000     -34.95770000     -71.15780000
H      -43.29410000     -34.45720000     -72.42610000
C      -45.29450000     -32.61800000     -73.32370000
H      -45.24460000     -32.52310000     -74.33370000
H      -44.87600000     -33.57530000     -73.03470000
C      -44.52700000     -31.49010000     -72.57190000
C      -44.86010000     -30.14700000     -72.61490000
C      -43.42710000     -31.77310000     -71.62420000
H      -45.58560000     -29.53510000     -73.15600000
C      -42.97220000     -30.57600000     -71.05940000
C      -42.76050000     -32.89570000     -71.03180000
C      -41.72810000     -32.51650000     -70.14610000
S      -43.75370000     -29.13840000     -71.68680000
S      -41.69600000     -30.76550000     -69.86320000
H      -41.23990000     -33.21000000     -69.54490000
