40
Properties=species:S:1:pos:R:3 #=T CELL(abcABC):=T 1.889726e+02=T 90.00000=T Traj:=T positionsangstrom=T Step:=T 0=T Bead:=T pbc="F F F"
C      -47.28190000     -35.56570000     -68.83500000
C      -46.77420000     -36.26470000     -69.95670000
C      -47.37730000     -36.04790000     -71.22770000
C      -48.45000000     -35.15370000     -71.40710000
C      -48.85830000     -34.47200000     -70.25800000
C      -48.28800000     -34.59750000     -69.02290000
H      -46.71530000     -35.48550000     -67.86120000
H      -47.00620000     -36.66690000     -72.09530000
H      -49.77590000     -33.87110000     -70.35020000
H      -48.58240000     -34.05510000     -68.12450000
C      -49.06390000     -34.65070000     -72.76510000
H      -49.88350000     -34.05730000     -72.53760000
H      -49.45580000     -35.44960000     -73.38050000
C      -45.79310000     -37.37520000     -69.83130000
H      -45.44410000     -37.60060000     -68.85320000
H      -46.11570000     -38.22190000     -70.36950000
S      -47.88620000     -33.69580000     -73.75350000
S      -44.25530000     -36.87360000     -70.92200000
C      -46.91220000     -32.57850000     -72.67190000
H      -47.51460000     -31.64740000     -72.39250000
H      -46.62670000     -33.14830000     -71.78200000
C      -43.91390000     -35.16790000     -70.41990000
H      -43.19310000     -35.04810000     -69.59430000
H      -44.88160000     -34.74390000     -70.17770000
C      -43.46460000     -34.32690000     -71.64340000
H      -42.75290000     -34.93700000     -72.12380000
H      -44.31840000     -34.32030000     -72.24350000
C      -45.63770000     -32.17850000     -73.43720000
H      -45.93510000     -31.56460000     -74.40240000
H      -45.20490000     -33.08540000     -73.86440000
C      -44.77000000     -31.28590000     -72.54690000
C      -44.93040000     -29.91850000     -72.52980000
C      -43.69680000     -31.72560000     -71.68020000
H      -45.60790000     -29.42320000     -73.23950000
C      -43.13410000     -30.59130000     -71.08420000
C      -42.99790000     -32.90120000     -71.25920000
C      -41.97230000     -32.65260000     -70.27910000
S      -43.90600000     -29.11030000     -71.48460000
S      -41.80340000     -30.88500000     -69.98410000
H      -41.16880000     -33.31600000     -69.91830000
