40
Properties=species:S:1:pos:R:3 #=T CELL(abcABC):=T 1.889726e+02=T 90.00000=T Traj:=T positionsangstrom=T Step:=T 0=T Bead:=T pbc="F F F"
C      -47.09720000     -35.73110000     -69.00070000
C      -46.66220000     -36.42400000     -70.14000000
C      -47.23230000     -36.16320000     -71.42520000
C      -48.24860000     -35.18780000     -71.53170000
C      -48.70460000     -34.54150000     -70.36240000
C      -48.11160000     -34.77760000     -69.11470000
H      -46.70200000     -36.13050000     -68.10270000
H      -46.75540000     -36.74930000     -72.17840000
H      -49.45240000     -33.75520000     -70.48340000
H      -48.39120000     -34.16400000     -68.24290000
C      -48.88280000     -34.91710000     -72.89690000
H      -49.97270000     -34.84810000     -72.70670000
H      -48.77870000     -35.75830000     -73.52290000
C      -45.62630000     -37.39240000     -69.86400000
H      -45.41350000     -37.41660000     -68.81250000
H      -45.95400000     -38.40220000     -70.13560000
S      -48.13330000     -33.43350000     -73.78550000
S      -44.13710000     -37.00130000     -70.86150000
C      -46.87230000     -32.85130000     -72.62490000
H      -47.22130000     -32.29930000     -71.71850000
H      -46.40080000     -33.81660000     -72.36710000
C      -43.81730000     -35.29300000     -70.30120000
H      -42.85080000     -35.30380000     -69.77330000
H      -44.48110000     -34.88120000     -69.48350000
C      -43.75530000     -34.29130000     -71.50120000
H      -43.13810000     -34.77860000     -72.23360000
H      -44.72480000     -34.35190000     -71.94380000
C      -45.89320000     -31.88140000     -73.34770000
H      -46.53680000     -31.19290000     -73.92610000
H      -45.15120000     -32.45730000     -73.95880000
C      -44.90570000     -31.11470000     -72.45890000
C      -44.90850000     -29.77200000     -72.64410000
C      -43.85880000     -31.58630000     -71.53580000
H      -45.48970000     -29.12570000     -73.34040000
C      -43.20100000     -30.52540000     -70.95590000
C      -43.38570000     -32.86380000     -71.04590000
C      -42.33030000     -32.59910000     -70.15740000
S      -43.64900000     -29.01280000     -71.62620000
S      -41.89660000     -30.87660000     -69.87360000
H      -41.77350000     -33.39460000     -69.66710000
