40
Properties=species:S:1:pos:R:3 #=T CELL(abcABC):=T 1.889726e+02=T 90.00000=T Traj:=T positionsangstrom=T Step:=T 0=T Bead:=T pbc="F F F"
C      -47.59840000     -31.76490000     -71.93740000
C      -47.63850000     -33.03700000     -72.47800000
C      -46.62510000     -33.44680000     -73.38580000
C      -45.45530000     -32.66320000     -73.53670000
C      -45.43300000     -31.38730000     -72.96500000
C      -46.47070000     -30.95630000     -72.14450000
H      -48.33390000     -31.36820000     -71.15340000
H      -46.70400000     -34.42120000     -73.90050000
H      -44.63240000     -30.71180000     -73.12450000
H      -46.33530000     -29.95610000     -71.59640000
C      -44.43620000     -33.12230000     -74.47790000
H      -44.19410000     -32.31740000     -75.19390000
H      -44.84450000     -33.89250000     -75.12590000
C      -48.85090000     -33.91270000     -72.21410000
H      -49.71970000     -33.29910000     -71.90740000
H      -49.19850000     -34.26430000     -73.15720000
S      -42.87390000     -33.66450000     -73.58110000
S      -48.66820000     -35.36100000     -71.03950000
C      -43.48820000     -35.07220000     -72.58310000
H      -44.55390000     -34.93260000     -72.54120000
H      -43.26570000     -35.90450000     -73.31750000
C      -46.89640000     -35.97940000     -71.27250000
H      -46.52440000     -35.56740000     -72.27760000
H      -47.06110000     -37.06410000     -71.34140000
C      -45.90460000     -35.74140000     -70.16820000
H      -46.25850000     -36.27270000     -69.36140000
H      -45.00330000     -36.16440000     -70.60890000
C      -42.67220000     -35.20670000     -71.28030000
H      -41.57980000     -35.12100000     -71.30670000
H      -43.02880000     -36.03530000     -70.62770000
C      -43.05200000     -33.95190000     -70.47760000
C      -42.13420000     -32.92710000     -70.31320000
C      -44.39200000     -33.62880000     -70.02190000
H      -41.05580000     -32.84850000     -70.69810000
C      -44.38150000     -32.35810000     -69.44400000
C      -45.62550000     -34.29760000     -69.82640000
C      -46.53520000     -33.48750000     -69.19740000
S      -42.81960000     -31.45820000     -69.72500000
S      -45.96140000     -31.85430000     -68.82650000
H      -47.48510000     -33.86580000     -68.78090000
