40
Properties=species:S:1:pos:R:3 #=T CELL(abcABC):=T 1.889726e+02=T 90.00000=T Traj:=T positionsangstrom=T Step:=T 0=T Bead:=T pbc="F F F"
C      -47.18530000     -31.87390000     -71.51970000
C      -47.60420000     -32.85990000     -72.48130000
C      -46.83240000     -32.98380000     -73.66030000
C      -45.60650000     -32.24320000     -73.78430000
C      -45.21970000     -31.34340000     -72.78070000
C      -45.99010000     -31.20230000     -71.62800000
H      -47.65190000     -31.76560000     -70.54890000
H      -47.03040000     -33.56070000     -74.52640000
H      -44.26500000     -30.79370000     -72.86690000
H      -45.65580000     -30.47670000     -70.96640000
C      -44.76160000     -32.63730000     -74.92630000
H      -44.41280000     -31.68940000     -75.49480000
H      -45.27610000     -33.22170000     -75.67600000
C      -48.82920000     -33.68240000     -72.26310000
H      -49.67690000     -33.19020000     -71.93750000
H      -49.06230000     -34.21950000     -73.15220000
S      -43.23070000     -33.48880000     -74.33870000
S      -48.58240000     -34.88120000     -70.85830000
C      -43.87860000     -34.88160000     -73.23200000
H      -44.90040000     -34.54670000     -72.98980000
H      -43.85060000     -35.87950000     -73.71880000
C      -47.06070000     -35.92020000     -71.26770000
H      -46.64500000     -35.58040000     -72.25440000
H      -47.41820000     -36.95000000     -71.42920000
C      -45.87710000     -35.99860000     -70.27690000
H      -46.14310000     -36.65590000     -69.46400000
H      -45.07700000     -36.52180000     -70.79450000
C      -43.06350000     -34.90140000     -71.98000000
H      -42.03300000     -34.93950000     -72.28260000
H      -43.29980000     -35.87710000     -71.46050000
C      -43.26610000     -33.74670000     -70.99710000
C      -42.51420000     -32.59720000     -70.88890000
C      -44.27710000     -33.82960000     -69.87680000
H      -41.74690000     -32.32630000     -71.57270000
C      -44.29480000     -32.66190000     -69.18710000
C      -45.36990000     -34.73800000     -69.56910000
C      -46.05470000     -34.18130000     -68.48100000
S      -42.97900000     -31.59320000     -69.58670000
S      -45.45380000     -32.66180000     -67.88900000
H      -46.94390000     -34.51990000     -67.94610000
