40
Properties=species:S:1:pos:R:3 #=T CELL(abcABC):=T 1.889726e+02=T 90.00000=T Traj:=T positionsangstrom=T Step:=T 0=T Bead:=T pbc="F F F"
C      -47.24910000     -31.66040000     -71.19070000
C      -47.57630000     -32.59040000     -72.19110000
C      -46.90520000     -32.67860000     -73.42950000
C      -45.81340000     -31.81910000     -73.67700000
C      -45.47360000     -30.83240000     -72.66780000
C      -46.21560000     -30.73830000     -71.50330000
H      -47.83330000     -31.65310000     -70.23860000
H      -47.16810000     -33.41140000     -74.15130000
H      -44.71120000     -30.13870000     -72.85010000
H      -45.90170000     -30.03990000     -70.71550000
C      -44.89280000     -31.90860000     -74.86380000
H      -44.51380000     -30.91900000     -74.98530000
H      -45.39430000     -32.20300000     -75.77970000
C      -48.71420000     -33.57400000     -71.88070000
H      -49.55980000     -32.98680000     -71.40750000
H      -49.01870000     -34.08490000     -72.80720000
S      -43.30890000     -32.99120000     -74.52160000
S      -48.08150000     -34.70050000     -70.56240000
C      -44.00530000     -34.51130000     -73.73510000
H      -45.11760000     -34.43130000     -73.74970000
H      -43.86110000     -35.49360000     -74.28590000
C      -46.86690000     -35.63280000     -71.60180000
H      -46.42680000     -34.91410000     -72.38920000
H      -47.38820000     -36.32440000     -72.20690000
C      -45.94330000     -36.28130000     -70.58080000
H      -46.50550000     -37.00960000     -69.92520000
H      -45.16900000     -36.85240000     -71.07070000
C      -43.39950000     -34.83550000     -72.40250000
H      -42.39320000     -35.18060000     -72.62650000
H      -43.85390000     -35.80620000     -72.17730000
C      -43.51140000     -33.92220000     -71.22760000
C      -42.74610000     -32.86890000     -71.04680000
C      -44.39260000     -34.17930000     -70.11040000
H      -42.09150000     -32.32350000     -71.73450000
C      -44.23920000     -33.18350000     -69.16840000
C      -45.32480000     -35.26990000     -69.66180000
C      -45.79050000     -34.94690000     -68.40480000
S      -43.05780000     -31.94960000     -69.54490000
S      -45.20830000     -33.41020000     -67.77830000
H      -46.55820000     -35.50120000     -67.94890000
