40
Properties=species:S:1:pos:R:3 #=T CELL(abcABC):=T 1.889726e+02=T 90.00000=T Traj:=T positionsangstrom=T Step:=T 0=T Bead:=T pbc="F F F"
C      -46.40310000     -32.14060000     -74.40870000
C      -45.95510000     -33.47020000     -74.54080000
C      -44.59150000     -33.74070000     -74.40550000
C      -43.61420000     -32.78490000     -74.03680000
C      -44.11070000     -31.48650000     -73.78810000
C      -45.49300000     -31.17060000     -74.01700000
H      -47.46920000     -31.79460000     -74.44310000
H      -44.28280000     -34.75960000     -74.64040000
H      -43.50860000     -30.75930000     -73.40720000
H      -45.86190000     -30.14200000     -73.77310000
C      -42.21060000     -33.23890000     -73.87300000
H      -41.52410000     -32.39350000     -73.68280000
H      -41.84210000     -33.70610000     -74.82020000
C      -46.80630000     -34.64270000     -74.91780000
H      -47.88680000     -34.32890000     -75.09590000
H      -46.27190000     -35.15310000     -75.76060000
S      -42.10730000     -34.49160000     -72.43840000
S      -46.94720000     -35.97870000     -73.62250000
C      -42.62310000     -33.30500000     -70.96360000
H      -41.77420000     -32.73120000     -70.70710000
H      -43.32580000     -32.57070000     -71.27410000
C      -47.53200000     -35.02680000     -72.16860000
H      -48.14090000     -35.65580000     -71.52630000
H      -48.15240000     -34.19560000     -72.48170000
C      -46.34030000     -34.54300000     -71.25660000
H      -45.92340000     -35.46020000     -70.79850000
H      -45.54040000     -34.05450000     -71.87200000
C      -43.21180000     -34.12260000     -69.82760000
H      -42.40920000     -34.37790000     -69.09420000
H      -43.73630000     -35.04900000     -70.23020000
C      -44.21900000     -33.23190000     -69.06830000
C      -43.80910000     -32.53680000     -67.92990000
C      -45.69220000     -33.21610000     -69.10640000
H      -42.77420000     -32.46900000     -67.60220000
C      -46.27340000     -32.46670000     -68.07910000
C      -46.74540000     -33.63400000     -70.02420000
C      -48.01290000     -33.25380000     -69.75300000
S      -45.09850000     -31.73850000     -67.03430000
S      -47.97370000     -32.32570000     -68.24310000
H      -48.99630000     -33.26320000     -70.22840000
