40
Properties=species:S:1:pos:R:3 #=T CELL(abcABC):=T 1.889726e+02=T 90.00000=T Traj:=T positionsangstrom=T Step:=T 0=T Bead:=T pbc="F F F"
C      -47.27640000     -31.46370000     -71.29610000
C      -47.45610000     -32.53790000     -72.17580000
C      -46.71880000     -32.66390000     -73.42230000
C      -45.72080000     -31.76160000     -73.70300000
C      -45.42080000     -30.72000000     -72.78230000
C      -46.14550000     -30.64850000     -71.56240000
H      -47.78880000     -31.21620000     -70.37990000
H      -46.92970000     -33.50010000     -74.02020000
H      -44.55990000     -30.10590000     -72.97470000
H      -45.87460000     -29.89220000     -70.84010000
C      -44.87490000     -31.98720000     -74.88470000
H      -44.43000000     -31.07610000     -75.43510000
H      -45.39300000     -32.57860000     -75.68870000
C      -48.55400000     -33.60270000     -71.97220000
H      -49.48920000     -33.10410000     -71.73410000
H      -48.76420000     -34.08490000     -72.92320000
S      -43.32820000     -32.94000000     -74.44620000
S      -48.21350000     -34.76000000     -70.64200000
C      -43.97840000     -34.50520000     -73.65310000
H      -44.98840000     -34.34790000     -73.53110000
H      -43.78870000     -35.24840000     -74.42900000
C      -46.98670000     -36.00370000     -71.30820000
H      -46.46210000     -35.58540000     -72.17940000
H      -47.66470000     -36.81310000     -71.59740000
C      -45.81180000     -36.41360000     -70.35900000
H      -46.20730000     -37.26920000     -69.69480000
H      -45.02380000     -36.88500000     -70.98300000
C      -43.22760000     -34.91650000     -72.36990000
H      -42.11700000     -34.97190000     -72.51680000
H      -43.61540000     -35.88160000     -72.04720000
C      -43.59060000     -33.95330000     -71.20280000
C      -42.91730000     -32.79020000     -71.24130000
C      -44.38820000     -34.21120000     -70.01500000
H      -42.29780000     -32.26350000     -72.01180000
C      -44.29690000     -33.09370000     -69.16290000
C      -45.28400000     -35.25500000     -69.54490000
C      -45.77070000     -34.98250000     -68.29200000
S      -43.24000000     -31.87590000     -69.73950000
S      -45.16720000     -33.40940000     -67.73800000
H      -46.39730000     -35.63900000     -67.74070000
