40
Properties=species:S:1:pos:R:3 #=T CELL(abcABC):=T 1.889726e+02=T 90.00000=T Traj:=T positionsangstrom=T Step:=T 0=T Bead:=T pbc="F F F"
C      -47.46690000     -31.84910000     -71.65760000
C      -47.70700000     -32.97680000     -72.41500000
C      -46.74130000     -33.36590000     -73.35590000
C      -45.61720000     -32.56790000     -73.59260000
C      -45.44360000     -31.35630000     -72.88410000
C      -46.38350000     -30.99860000     -71.96290000
H      -48.16170000     -31.45530000     -70.90510000
H      -46.89360000     -34.32050000     -73.99510000
H      -44.65340000     -30.67330000     -72.99020000
H      -46.28910000     -30.04630000     -71.38960000
C      -44.57050000     -33.09310000     -74.55800000
H      -44.26850000     -32.24010000     -75.15710000
H      -44.94990000     -33.90220000     -75.24550000
C      -48.96220000     -33.82800000     -72.18230000
H      -49.67220000     -33.20380000     -71.60590000
H      -49.34980000     -34.25420000     -73.02730000
S      -42.94620000     -33.57150000     -73.81520000
S      -48.61230000     -35.22300000     -70.98500000
C      -43.38630000     -35.14060000     -72.89640000
H      -44.38590000     -35.29530000     -72.66610000
H      -43.10300000     -35.95900000     -73.53710000
C      -46.89460000     -35.80930000     -71.35180000
H      -46.45550000     -35.12950000     -72.06080000
H      -46.94090000     -36.83560000     -71.82300000
C      -45.95180000     -35.81040000     -70.11790000
H      -46.30640000     -36.26510000     -69.11890000
H      -45.03660000     -36.44150000     -70.24950000
C      -42.70250000     -35.22270000     -71.44260000
H      -41.67260000     -35.36010000     -71.64580000
H      -43.02920000     -36.20870000     -71.01340000
C      -43.04760000     -33.98990000     -70.66770000
C      -42.15930000     -32.94980000     -70.54790000
C      -44.32370000     -33.65560000     -69.97710000
H      -41.09610000     -33.02750000     -70.95460000
C      -44.36440000     -32.38000000     -69.45020000
C      -45.63960000     -34.32420000     -69.79840000
C      -46.50860000     -33.53110000     -69.10560000
S      -42.84430000     -31.59670000     -69.59460000
S      -45.81660000     -31.96840000     -68.68580000
H      -47.46350000     -33.79150000     -68.68520000
