40
Properties=species:S:1:pos:R:3 #=T CELL(abcABC):=T 1.889726e+02=T 90.00000=T Traj:=T positionsangstrom=T Step:=T 0=T Bead:=T pbc="F F F"
C      -46.90910000     -31.88410000     -70.12230000
C      -47.42800000     -32.05350000     -71.42330000
C      -46.67090000     -31.55710000     -72.48000000
C      -45.35250000     -30.96450000     -72.27600000
C      -44.90530000     -30.86400000     -71.01000000
C      -45.69420000     -31.32630000     -69.89580000
H      -47.37290000     -32.33780000     -69.26190000
H      -47.07370000     -31.50850000     -73.49130000
H      -43.97440000     -30.42930000     -70.71640000
H      -45.34350000     -31.15320000     -68.87530000
C      -44.39240000     -30.59000000     -73.38920000
H      -43.72070000     -29.78230000     -73.10830000
H      -44.88500000     -30.23620000     -74.32930000
C      -48.74780000     -32.71600000     -71.69690000
H      -49.47520000     -32.15140000     -71.11350000
H      -49.03640000     -32.52820000     -72.73410000
S      -43.22570000     -31.92480000     -73.95900000
S      -48.89530000     -34.53390000     -71.40770000
C      -44.26090000     -33.44440000     -73.99320000
H      -45.25360000     -33.26110000     -73.53080000
H      -44.43720000     -33.54760000     -75.08580000
C      -47.47040000     -35.21060000     -72.39330000
H      -46.86250000     -34.37900000     -72.79250000
H      -47.82290000     -35.75050000     -73.28830000
C      -46.51420000     -36.13050000     -71.63510000
H      -47.08270000     -36.85620000     -71.05350000
H      -45.98360000     -36.78650000     -72.36770000
C      -43.66500000     -34.65010000     -73.31040000
H      -42.77740000     -34.86060000     -73.75500000
H      -44.33630000     -35.48120000     -73.50720000
C      -43.53040000     -34.33560000     -71.86060000
C      -42.45330000     -33.52510000     -71.40140000
C      -44.45500000     -34.75710000     -70.76470000
H      -41.65400000     -33.15350000     -71.97400000
C      -44.06460000     -34.10920000     -69.55630000
C      -45.69760000     -35.49290000     -70.60970000
C      -46.18920000     -35.48950000     -69.35490000
S      -42.54430000     -33.26870000     -69.67160000
S      -45.21290000     -34.48740000     -68.21430000
H      -47.17470000     -35.86040000     -69.03490000
