40
Properties=species:S:1:pos:R:3 #=T CELL(abcABC):=T 1.889726e+02=T 90.00000=T Traj:=T positionsangstrom=T Step:=T 0=T Bead:=T pbc="F F F"
C      -44.48850000     -30.94720000     -69.66540000
C      -45.87540000     -30.91330000     -69.77640000
C      -46.43130000     -30.63040000     -71.04010000
C      -45.65040000     -30.34920000     -72.15940000
C      -44.26750000     -30.33910000     -71.98320000
C      -43.72470000     -30.62330000     -70.76160000
H      -43.92930000     -31.38730000     -68.80680000
H      -47.58360000     -30.56430000     -70.99410000
H      -43.59750000     -30.25730000     -72.82470000
H      -42.66310000     -30.79570000     -70.64920000
C      -46.34650000     -30.22770000     -73.50420000
H      -45.82830000     -29.58740000     -74.26490000
H      -47.29710000     -29.76410000     -73.26910000
C      -46.73030000     -31.36720000     -68.70160000
H      -46.71520000     -30.72250000     -67.76770000
H      -47.71510000     -31.32710000     -69.00790000
S      -46.71790000     -31.79130000     -74.41220000
S      -46.44930000     -33.04260000     -68.00410000
C      -47.01160000     -33.01390000     -73.08610000
H      -46.51190000     -32.72690000     -72.19530000
H      -48.05190000     -33.04630000     -72.63630000
C      -47.57050000     -34.20020000     -68.90250000
H      -48.49280000     -33.72130000     -69.10890000
H      -47.71880000     -34.97790000     -68.25700000
C      -46.96950000     -34.75350000     -70.23060000
H      -47.54470000     -35.63470000     -70.52190000
H      -47.22600000     -33.97310000     -70.98370000
C      -46.59550000     -34.43160000     -73.49630000
H      -46.58170000     -34.47990000     -74.63170000
H      -47.31860000     -35.16320000     -73.14700000
C      -45.24860000     -34.99280000     -73.03950000
C      -44.22010000     -35.28750000     -73.93360000
C      -44.88870000     -35.22170000     -71.66090000
H      -44.27710000     -35.03910000     -75.02090000
C      -43.55400000     -35.75570000     -71.50840000
C      -45.52490000     -35.03980000     -70.35880000
C      -44.68730000     -35.36040000     -69.32710000
S      -42.79980000     -35.93080000     -73.04180000
S      -43.08690000     -35.93150000     -69.86090000
H      -44.93780000     -35.22880000     -68.30500000
