40
Properties=species:S:1:pos:R:3 #=T CELL(abcABC):=T 1.889726e+02=T 90.00000=T Traj:=T positionsangstrom=T Step:=T 0=T Bead:=T pbc="F F F"
C      -47.03170000     -31.74820000     -70.70890000
C      -47.64880000     -32.31850000     -71.85790000
C      -47.01680000     -32.29570000     -73.11420000
C      -45.72740000     -31.73850000     -73.20950000
C      -45.13440000     -31.11250000     -72.13860000
C      -45.77500000     -31.10150000     -70.89570000
H      -47.43800000     -31.85990000     -69.70660000
H      -47.40680000     -32.75610000     -73.97680000
H      -44.17320000     -30.65280000     -72.31480000
H      -45.38800000     -30.43810000     -70.10920000
C      -44.97040000     -31.75730000     -74.58860000
H      -44.69110000     -30.71000000     -74.90290000
H      -45.57240000     -32.24990000     -75.42120000
C      -48.92460000     -33.06230000     -71.73480000
H      -49.70060000     -32.68440000     -71.04600000
H      -49.38540000     -33.14890000     -72.69870000
S      -43.39610000     -32.68310000     -74.40290000
S      -48.73270000     -34.83720000     -71.17960000
C      -43.93160000     -34.37560000     -73.75590000
H      -44.97390000     -34.26980000     -73.56220000
H      -43.75920000     -35.07790000     -74.61980000
C      -47.13340000     -35.56100000     -71.96400000
H      -46.58070000     -34.85360000     -72.66210000
H      -47.41140000     -36.42030000     -72.53020000
C      -46.19290000     -36.01720000     -70.95830000
H      -46.62330000     -36.82870000     -70.33640000
H      -45.37710000     -36.65800000     -71.44140000
C      -43.16090000     -34.90910000     -72.54660000
H      -42.12680000     -34.97130000     -72.83840000
H      -43.51240000     -35.89690000     -72.49540000
C      -43.23280000     -34.18170000     -71.26920000
C      -42.31340000     -33.22670000     -70.97360000
C      -44.27300000     -34.25730000     -70.22730000
H      -41.60650000     -32.84690000     -71.61970000
C      -43.98840000     -33.40010000     -69.20480000
C      -45.53360000     -34.93760000     -70.07810000
C      -46.15590000     -34.66130000     -68.82920000
S      -42.62110000     -32.45120000     -69.37390000
S      -45.26960000     -33.42790000     -67.94110000
H      -47.09270000     -35.07420000     -68.52540000
