40
Properties=species:S:1:pos:R:3 #=T CELL(abcABC):=T 1.889726e+02=T 90.00000=T Traj:=T positionsangstrom=T Step:=T 0=T Bead:=T pbc="F F F"
C      -46.59880000     -32.42730000     -74.25740000
C      -46.04620000     -33.68040000     -74.47110000
C      -44.64400000     -33.87160000     -74.44390000
C      -43.74440000     -32.93590000     -73.91960000
C      -44.35910000     -31.71310000     -73.48890000
C      -45.71740000     -31.45350000     -73.70720000
H      -47.61490000     -32.21960000     -74.35810000
H      -44.22650000     -34.84610000     -74.72730000
H      -43.80090000     -30.90150000     -72.90900000
H      -45.95620000     -30.47840000     -73.37780000
C      -42.28240000     -33.18940000     -73.92640000
H      -41.70070000     -32.24870000     -74.10490000
H      -42.03500000     -33.95140000     -74.63800000
C      -46.88440000     -34.74500000     -74.98370000
H      -47.85100000     -34.37160000     -75.30080000
H      -46.44050000     -35.32190000     -75.84570000
S      -41.68110000     -34.02290000     -72.30600000
S      -47.19590000     -36.04390000     -73.64590000
C      -42.70910000     -33.15710000     -70.94050000
H      -42.22510000     -32.24060000     -70.60860000
H      -43.48820000     -32.72470000     -71.49470000
C      -47.61850000     -35.03930000     -72.16110000
H      -48.33390000     -35.63540000     -71.51260000
H      -48.06290000     -34.06370000     -72.51690000
C      -46.31050000     -34.70030000     -71.31040000
H      -45.83260000     -35.65480000     -70.97710000
H      -45.60870000     -34.20900000     -71.97620000
C      -43.09510000     -34.09780000     -69.76180000
H      -42.21750000     -34.40910000     -69.12200000
H      -43.46190000     -34.98040000     -70.20310000
C      -44.16510000     -33.39970000     -68.97680000
C      -43.73770000     -32.67060000     -67.85260000
C      -45.63670000     -33.22060000     -69.22240000
H      -42.75440000     -32.50840000     -67.39800000
C      -46.17930000     -32.41100000     -68.24410000
C      -46.65990000     -33.70020000     -70.13890000
C      -47.90110000     -33.22340000     -69.80090000
S      -45.14410000     -31.68650000     -67.12200000
S      -47.83060000     -32.13340000     -68.47580000
H      -48.86240000     -33.35400000     -70.28360000
