40
Properties=species:S:1:pos:R:3 #=T CELL(abcABC):=T 1.889726e+02=T 90.00000=T Traj:=T positionsangstrom=T Step:=T 0=T Bead:=T pbc="F F F"
C      -46.84180000     -31.65180000     -69.71450000
C      -47.41910000     -31.55530000     -70.99730000
C      -46.61810000     -31.13200000     -72.07520000
C      -45.26380000     -30.84410000     -71.93290000
C      -44.68520000     -31.03270000     -70.64940000
C      -45.49340000     -31.32570000     -69.53960000
H      -47.50570000     -32.01810000     -68.87270000
H      -47.11560000     -30.92920000     -73.02870000
H      -43.62750000     -30.95470000     -70.48310000
H      -45.01930000     -31.38670000     -68.55460000
C      -44.47250000     -30.34860000     -73.09830000
H      -43.86720000     -29.45320000     -72.94040000
H      -45.06820000     -30.17840000     -74.00610000
C      -48.80320000     -32.06730000     -71.29710000
H      -49.44290000     -31.81890000     -70.37740000
H      -49.30700000     -31.55990000     -72.06970000
S      -43.10890000     -31.54460000     -73.54060000
S      -48.78780000     -33.87840000     -71.59690000
C      -44.04790000     -33.04800000     -74.07760000
H      -45.15080000     -32.96380000     -73.65870000
H      -43.99760000     -33.29370000     -75.15300000
C      -47.36940000     -34.14780000     -72.73620000
H      -46.71520000     -33.34350000     -72.72380000
H      -47.79300000     -34.19400000     -73.73010000
C      -46.73710000     -35.47350000     -72.50650000
H      -47.52820000     -36.24490000     -72.48690000
H      -46.11280000     -35.72210000     -73.37030000
C      -43.54200000     -34.31970000     -73.35790000
H      -42.58250000     -34.63790000     -73.69160000
H      -44.28290000     -34.98480000     -73.70590000
C      -43.57870000     -34.29450000     -71.85230000
C      -42.43270000     -33.89220000     -71.15560000
C      -44.64900000     -34.88700000     -71.05580000
H      -41.57290000     -33.48640000     -71.67470000
C      -44.22220000     -34.82640000     -69.72830000
C      -45.96010000     -35.53070000     -71.24790000
C      -46.42320000     -36.14620000     -70.07070000
S      -42.62150000     -34.12330000     -69.45410000
S      -45.30440000     -35.83400000     -68.67760000
H      -47.45330000     -36.52770000     -69.91990000
