40
Properties=species:S:1:pos:R:3 #=T CELL(abcABC):=T 1.889726e+02=T 90.00000=T Traj:=T positionsangstrom=T Step:=T 0=T Bead:=T pbc="F F F"
C      -46.37200000     -36.41270000     -68.48380000
C      -45.59540000     -36.58670000     -69.63630000
C      -46.21270000     -36.44700000     -70.88550000
C      -47.60370000     -36.09710000     -70.97730000
C      -48.36940000     -36.01340000     -69.78430000
C      -47.75960000     -36.18490000     -68.56380000
H      -45.89140000     -36.61380000     -67.50450000
H      -45.66220000     -36.38260000     -71.84400000
H      -49.44610000     -35.82310000     -69.73070000
H      -48.28690000     -36.19890000     -67.58330000
C      -48.19830000     -35.82690000     -72.27690000
H      -49.00120000     -36.51630000     -72.62540000
H      -47.47360000     -35.84510000     -73.18610000
C      -44.07010000     -36.97180000     -69.51720000
H      -43.78720000     -36.64170000     -68.51370000
H      -44.07300000     -38.06730000     -69.51810000
S      -48.88930000     -34.06380000     -72.36620000
S      -43.01670000     -36.36090000     -70.90740000
C      -47.36380000     -33.08020000     -71.96120000
H      -47.66470000     -32.15970000     -71.48040000
H      -46.81820000     -33.59630000     -71.16200000
C      -42.65940000     -34.52560000     -70.63570000
H      -41.64890000     -34.39150000     -71.07370000
H      -42.62790000     -34.37700000     -69.54690000
C      -43.67400000     -33.69770000     -71.36520000
H      -43.72670000     -33.93280000     -72.45670000
H      -44.66150000     -33.89990000     -70.97780000
C      -46.35470000     -32.71310000     -72.98080000
H      -46.86840000     -32.53980000     -73.96730000
H      -45.65790000     -33.57970000     -73.19850000
C      -45.59050000     -31.42560000     -72.70470000
C      -45.90600000     -30.22010000     -73.26600000
C      -44.35260000     -31.26930000     -71.95410000
H      -46.85000000     -30.16080000     -73.81410000
C      -43.92830000     -29.91230000     -71.91000000
C      -43.48970000     -32.18760000     -71.24070000
C      -42.35820000     -31.51720000     -70.72450000
S      -44.97770000     -28.87320000     -72.80970000
S      -42.52670000     -29.71230000     -70.96340000
H      -41.63610000     -32.05430000     -70.10230000
