40
Properties=species:S:1:pos:R:3 #=T CELL(abcABC):=T 1.889726e+02=T 90.00000=T Traj:=T positionsangstrom=T Step:=T 0=T Bead:=T pbc="F F F"
C      -46.92700000     -31.72670000     -69.74250000
C      -47.34190000     -31.60330000     -71.09530000
C      -46.49440000     -31.09540000     -72.04180000
C      -45.14800000     -30.80840000     -71.79190000
C      -44.71380000     -30.97940000     -70.47290000
C      -45.57880000     -31.44610000     -69.49700000
H      -47.58590000     -32.21730000     -69.00080000
H      -46.82070000     -31.05600000     -73.06170000
H      -43.59810000     -30.85460000     -70.18250000
H      -45.10110000     -31.56120000     -68.52620000
C      -44.25890000     -30.33580000     -72.90290000
H      -43.85500000     -29.29580000     -72.63010000
H      -44.76850000     -30.21800000     -73.77780000
C      -48.74790000     -32.02400000     -71.39730000
H      -49.33690000     -31.65490000     -70.56170000
H      -49.13530000     -31.56710000     -72.33320000
S      -42.79000000     -31.40230000     -73.32010000
S      -48.82690000     -33.90070000     -71.56490000
C      -43.73570000     -32.85370000     -74.06980000
H      -44.77870000     -32.56600000     -74.16600000
H      -43.44810000     -32.81010000     -75.06960000
C      -47.60950000     -34.20780000     -72.86140000
H      -46.91500000     -33.36490000     -72.75140000
H      -47.94970000     -34.28420000     -73.95710000
C      -46.87170000     -35.64230000     -72.55340000
H      -47.54660000     -36.46230000     -72.60210000
H      -46.25470000     -35.76400000     -73.49150000
C      -43.57780000     -34.23260000     -73.48830000
H      -42.53530000     -34.66160000     -73.80670000
H      -44.34240000     -34.87020000     -74.00340000
C      -43.60180000     -34.28770000     -71.96840000
C      -42.49540000     -33.92160000     -71.22200000
C      -44.67580000     -34.97000000     -71.15450000
H      -41.55730000     -33.46310000     -71.50830000
C      -44.35260000     -34.89360000     -69.80980000
C      -46.04280000     -35.61520000     -71.25750000
C      -46.55170000     -36.05480000     -70.01290000
S      -42.71160000     -34.29790000     -69.53730000
S      -45.46740000     -35.72830000     -68.72950000
H      -47.48660000     -36.56750000     -69.81870000
