40
Properties=species:S:1:pos:R:3 #=T CELL(abcABC):=T 1.889726e+02=T 90.00000=T Traj:=T positionsangstrom=T Step:=T 0=T Bead:=T pbc="F F F"
C      -46.73600000     -31.92070000     -69.92610000
C      -47.33400000     -31.82010000     -71.18890000
C      -46.60510000     -31.27400000     -72.24530000
C      -45.29090000     -30.74190000     -72.08510000
C      -44.73560000     -30.83830000     -70.81520000
C      -45.41990000     -31.51920000     -69.81010000
H      -47.29890000     -32.46150000     -69.21440000
H      -46.99700000     -31.25660000     -73.26880000
H      -43.74650000     -30.47920000     -70.58630000
H      -45.00860000     -31.73270000     -68.84970000
C      -44.56500000     -30.17970000     -73.24660000
H      -43.92730000     -29.30510000     -72.99470000
H      -45.19130000     -29.89570000     -74.03150000
C      -48.74650000     -32.23980000     -71.50760000
H      -49.52590000     -31.99960000     -70.84930000
H      -48.99350000     -31.74130000     -72.47950000
S      -43.36220000     -31.41470000     -74.00470000
S      -48.95460000     -34.13630000     -71.52110000
C      -44.29280000     -33.05520000     -73.89410000
H      -45.24750000     -32.82970000     -73.47220000
H      -44.53840000     -33.25210000     -75.03560000
C      -47.50460000     -34.64080000     -72.66110000
H      -46.86120000     -33.73950000     -72.77150000
H      -47.86410000     -34.92790000     -73.59570000
C      -46.65960000     -35.82210000     -72.14520000
H      -47.23220000     -36.73420000     -72.00310000
H      -46.03060000     -36.08490000     -73.00020000
C      -43.54480000     -34.29440000     -73.29490000
H      -42.48910000     -34.14420000     -73.65660000
H      -43.81670000     -35.30550000     -73.65800000
C      -43.58340000     -34.28860000     -71.78760000
C      -42.44120000     -33.85430000     -71.14420000
C      -44.58590000     -34.83750000     -70.86440000
H      -41.55510000     -33.24400000     -71.55690000
C      -44.09180000     -34.69910000     -69.57250000
C      -45.84270000     -35.52720000     -70.95350000
C      -46.23260000     -35.92760000     -69.72370000
S      -42.53500000     -33.94320000     -69.44550000
S      -45.12670000     -35.46020000     -68.38010000
H      -46.99640000     -36.70510000     -69.51610000
