40
Properties=species:S:1:pos:R:3 #=T CELL(abcABC):=T 1.889726e+02=T 90.00000=T Traj:=T positionsangstrom=T Step:=T 0=T Bead:=T pbc="F F F"
C      -46.72340000     -32.15540000     -70.12860000
C      -47.26270000     -32.12600000     -71.41220000
C      -46.56340000     -31.41820000     -72.40880000
C      -45.30660000     -30.92590000     -72.19170000
C      -44.77110000     -31.02380000     -70.88360000
C      -45.52470000     -31.51630000     -69.83650000
H      -47.22160000     -32.61330000     -69.24740000
H      -46.95260000     -31.44640000     -73.43670000
H      -43.78370000     -30.55810000     -70.67890000
H      -45.14250000     -31.39320000     -68.83940000
C      -44.54510000     -30.38980000     -73.38870000
H      -43.99820000     -29.53870000     -73.05260000
H      -45.22320000     -30.02030000     -74.17160000
C      -48.65180000     -32.55240000     -71.72330000
H      -49.37570000     -32.12090000     -70.97720000
H      -48.95480000     -32.51040000     -72.72030000
S      -43.37760000     -31.71630000     -73.96640000
S      -48.73690000     -34.39320000     -71.37300000
C      -44.39990000     -33.22970000     -74.15760000
H      -45.43370000     -33.12650000     -73.71700000
H      -44.50060000     -33.52510000     -75.16460000
C      -47.51130000     -35.06290000     -72.59300000
H      -46.96970000     -34.21360000     -72.88590000
H      -48.02850000     -35.52220000     -73.45160000
C      -46.50810000     -36.02260000     -71.88180000
H      -47.00220000     -36.89060000     -71.50610000
H      -45.71730000     -36.21890000     -72.59670000
C      -43.77870000     -34.35120000     -73.37890000
H      -42.75970000     -34.58480000     -73.77590000
H      -44.43650000     -35.26300000     -73.58240000
C      -43.65560000     -34.32290000     -71.84010000
C      -42.50010000     -33.72850000     -71.30420000
C      -44.58470000     -34.63610000     -70.76330000
H      -41.65680000     -33.50910000     -71.88500000
C      -44.13180000     -34.29700000     -69.49770000
C      -45.79040000     -35.39550000     -70.68560000
C      -46.25410000     -35.48320000     -69.42980000
S      -42.56870000     -33.52380000     -69.57260000
S      -45.17030000     -34.78970000     -68.19410000
H      -47.14930000     -35.90510000     -69.03450000
