40
Properties=species:S:1:pos:R:3 #=T CELL(abcABC):=T 1.889726e+02=T 90.00000=T Traj:=T positionsangstrom=T Step:=T 0=T Bead:=T pbc="F F F"
C      -45.65400000     -36.51030000     -68.18750000
C      -45.00440000     -36.41040000     -69.39180000
C      -45.79630000     -36.11480000     -70.55960000
C      -47.18450000     -36.04670000     -70.50880000
C      -47.82270000     -36.01890000     -69.22720000
C      -47.03240000     -36.19280000     -68.09830000
H      -45.10860000     -36.78830000     -67.33140000
H      -45.31330000     -36.01630000     -71.48130000
H      -48.89100000     -35.98990000     -69.10080000
H      -47.42790000     -36.16220000     -67.10560000
C      -47.99150000     -35.98190000     -71.83540000
H      -48.70930000     -36.89920000     -71.79120000
H      -47.24710000     -36.06150000     -72.69280000
C      -43.56730000     -36.70800000     -69.47990000
H      -43.02830000     -36.37730000     -68.64120000
H      -43.53900000     -37.78860000     -69.39030000
S      -48.96900000     -34.38390000     -71.96720000
S      -42.63910000     -36.20630000     -70.90750000
C      -47.73730000     -33.01020000     -71.69950000
H      -48.32990000     -32.12680000     -71.57080000
H      -47.17860000     -33.20550000     -70.76640000
C      -42.54620000     -34.30340000     -70.74190000
H      -41.60640000     -34.09490000     -71.19130000
H      -42.51940000     -34.06570000     -69.66300000
C      -43.70470000     -33.63390000     -71.48590000
H      -43.78610000     -34.13920000     -72.45710000
H      -44.67800000     -33.86330000     -71.07980000
C      -46.74840000     -32.93220000     -72.85080000
H      -47.25440000     -33.03660000     -73.83530000
H      -46.08920000     -33.80400000     -72.75750000
C      -45.95590000     -31.56320000     -72.76570000
C      -46.56370000     -30.42130000     -73.24870000
C      -44.65960000     -31.31940000     -72.25990000
H      -47.55060000     -30.42580000     -73.69750000
C      -44.30690000     -29.96660000     -72.38960000
C      -43.63240000     -32.12680000     -71.64150000
C      -42.48340000     -31.34770000     -71.36980000
S      -45.60350000     -28.97400000     -73.01470000
S      -42.80810000     -29.63560000     -71.66920000
H      -41.61690000     -31.63390000     -70.86890000
