40
Properties=species:S:1:pos:R:3 #=T CELL(abcABC):=T 1.889726e+02=T 90.00000=T Traj:=T positionsangstrom=T Step:=T 0=T Bead:=T pbc="F F F"
C      -46.00040000     -36.68780000     -68.27680000
C      -45.25530000     -36.53430000     -69.50110000
C      -45.96520000     -36.27350000     -70.65480000
C      -47.37570000     -36.14390000     -70.65010000
C      -48.08750000     -36.19180000     -69.44580000
C      -47.35400000     -36.39420000     -68.28200000
H      -45.57040000     -36.90780000     -67.32960000
H      -45.33480000     -36.15380000     -71.49370000
H      -49.15610000     -35.94190000     -69.47250000
H      -47.89880000     -36.38840000     -67.38840000
C      -48.04550000     -35.93590000     -71.92790000
H      -48.79830000     -36.67210000     -72.16360000
H      -47.33500000     -36.03870000     -72.73600000
C      -43.74820000     -36.65610000     -69.35690000
H      -43.37380000     -36.00580000     -68.57080000
H      -43.49760000     -37.64790000     -69.19210000
S      -48.82170000     -34.28730000     -72.14440000
S      -42.77110000     -36.24210000     -70.87850000
C      -47.60230000     -32.84030000     -71.83050000
H      -48.18660000     -31.93900000     -71.58250000
H      -47.00800000     -33.12280000     -70.96080000
C      -42.67600000     -34.45920000     -70.83080000
H      -41.72880000     -34.14520000     -71.19210000
H      -42.67680000     -34.12570000     -69.79600000
C      -43.83760000     -33.68970000     -71.51100000
H      -43.92280000     -34.05770000     -72.48920000
H      -44.75010000     -33.95130000     -70.92100000
C      -46.74700000     -32.62110000     -73.06610000
H      -47.28590000     -32.41870000     -73.96090000
H      -46.13570000     -33.41730000     -73.25690000
C      -45.89720000     -31.35480000     -72.86440000
C      -46.32390000     -30.16500000     -73.26110000
C      -44.62330000     -31.29680000     -72.18660000
H      -47.13880000     -29.83570000     -73.85720000
C      -44.20010000     -29.99410000     -72.14330000
C      -43.63500000     -32.22530000     -71.58860000
C      -42.60910000     -31.54950000     -70.97630000
S      -45.14800000     -28.79930000     -72.87760000
S      -42.63280000     -29.77560000     -71.38290000
H      -41.66750000     -31.91930000     -70.51300000
