40
Properties=species:S:1:pos:R:3 #=T CELL(abcABC):=T 1.889726e+02=T 90.00000=T Traj:=T positionsangstrom=T Step:=T 0=T Bead:=T pbc="F F F"
C      -46.07140000     -36.58440000     -68.28410000
C      -45.33390000     -36.45820000     -69.43700000
C      -46.01470000     -36.27490000     -70.67470000
C      -47.38340000     -36.12590000     -70.69930000
C      -48.15540000     -36.37870000     -69.49470000
C      -47.44880000     -36.52730000     -68.28080000
H      -45.47100000     -36.77990000     -67.40470000
H      -45.44720000     -36.10790000     -71.56750000
H      -49.24760000     -36.36890000     -69.40310000
H      -47.99260000     -36.65250000     -67.37510000
C      -48.21300000     -35.81080000     -71.99450000
H      -49.07710000     -36.54360000     -72.15950000
H      -47.58110000     -36.09770000     -72.90540000
C      -43.82440000     -36.80300000     -69.40560000
H      -43.45440000     -36.44790000     -68.36130000
H      -43.69930000     -37.89210000     -69.31240000
S      -48.91630000     -34.14410000     -72.27150000
S      -42.82240000     -36.27120000     -70.85660000
C      -47.53500000     -33.04360000     -71.93600000
H      -47.97510000     -32.21850000     -71.37430000
H      -46.92440000     -33.52060000     -71.14530000
C      -42.68970000     -34.39890000     -70.85200000
H      -41.74820000     -34.17770000     -71.39340000
H      -42.53000000     -34.05890000     -69.79540000
C      -43.90370000     -33.73420000     -71.41410000
H      -44.12800000     -34.09820000     -72.43700000
H      -44.81730000     -33.82450000     -70.85660000
C      -46.52390000     -32.61940000     -73.16300000
H      -47.25500000     -32.45790000     -74.03510000
H      -45.98360000     -33.56710000     -73.50620000
C      -45.77360000     -31.31910000     -72.88620000
C      -46.08150000     -30.11480000     -73.39720000
C      -44.58470000     -31.24650000     -72.06610000
H      -47.00420000     -29.82500000     -73.90120000
C      -44.06730000     -29.91770000     -72.07170000
C      -43.64870000     -32.22190000     -71.50080000
C      -42.50260000     -31.56720000     -70.99050000
S      -45.13680000     -28.77370000     -72.86720000
S      -42.56920000     -29.80770000     -71.19450000
H      -41.57290000     -31.88480000     -70.60630000
