40
Properties=species:S:1:pos:R:3 #=T CELL(abcABC):=T 1.889726e+02=T 90.00000=T Traj:=T positionsangstrom=T Step:=T 0=T Bead:=T pbc="F F F"
C      -46.28310000     -32.51270000     -68.90440000
C      -46.67240000     -31.58440000     -69.85410000
C      -45.65830000     -31.05620000     -70.65770000
C      -44.27490000     -31.41540000     -70.49210000
C      -43.97100000     -32.41540000     -69.58890000
C      -45.01690000     -33.03680000     -68.88340000
H      -47.10760000     -32.86320000     -68.35020000
H      -45.88050000     -30.19440000     -71.31850000
H      -42.90100000     -32.56270000     -69.36030000
H      -44.81090000     -33.84150000     -68.18230000
C      -43.25160000     -30.52930000     -71.17650000
H      -42.34690000     -30.31240000     -70.47590000
H      -43.69030000     -29.48440000     -71.34770000
C      -48.09580000     -31.23770000     -70.22250000
H      -48.72190000     -31.25400000     -69.35760000
H      -48.14780000     -30.25540000     -70.75800000
S      -42.56820000     -31.16410000     -72.82640000
S      -48.84360000     -32.37530000     -71.39190000
C      -44.09600000     -31.98240000     -73.58710000
H      -44.73790000     -31.85530000     -72.79150000
H      -44.40040000     -31.59480000     -74.54360000
C      -47.55860000     -32.58330000     -72.72110000
H      -46.59020000     -32.09150000     -72.40170000
H      -47.92040000     -31.91180000     -73.55770000
C      -47.33720000     -33.99270000     -73.14760000
H      -48.24450000     -34.49270000     -73.34070000
H      -46.77410000     -33.95270000     -74.08920000
C      -43.84790000     -33.46050000     -73.75030000
H      -42.90050000     -33.69960000     -74.30960000
H      -44.76160000     -33.75760000     -74.42420000
C      -43.88900000     -34.34400000     -72.53410000
C      -42.75910000     -34.89000000     -71.98240000
C      -45.14450000     -34.79560000     -71.82270000
H      -41.72020000     -34.82860000     -72.20720000
C      -44.86380000     -35.68850000     -70.76370000
C      -46.55890000     -34.77580000     -72.10400000
C      -47.25070000     -35.71700000     -71.29720000
S      -43.11460000     -35.80640000     -70.51290000
S      -46.18790000     -36.50150000     -70.14850000
H      -48.30720000     -35.91240000     -71.33990000
