40
Properties=species:S:1:pos:R:3 #=T CELL(abcABC):=T 1.889726e+02=T 90.00000=T Traj:=T positionsangstrom=T Step:=T 0=T Bead:=T pbc="F F F"
C      -45.98150000     -33.66040000     -68.71700000
C      -46.40950000     -32.37490000     -69.14250000
C      -45.44720000     -31.51970000     -69.68480000
C      -44.05080000     -31.94190000     -69.76290000
C      -43.68510000     -33.17960000     -69.32050000
C      -44.63630000     -33.99770000     -68.77730000
H      -46.72940000     -34.43720000     -68.49250000
H      -45.72160000     -30.49740000     -69.87360000
H      -42.57290000     -33.33510000     -69.40820000
H      -44.32770000     -35.00890000     -68.45320000
C      -43.09900000     -30.85770000     -70.35020000
H      -42.21510000     -30.76890000     -69.74590000
H      -43.58860000     -29.87290000     -70.40190000
C      -47.85960000     -31.96440000     -69.00410000
H      -48.29620000     -32.53250000     -68.16700000
H      -48.05690000     -30.88150000     -68.74470000
S      -42.37490000     -31.10500000     -72.04170000
S      -48.81330000     -32.45390000     -70.50700000
C      -43.89230000     -31.23390000     -73.02390000
H      -44.70440000     -31.16510000     -72.31200000
H      -43.95280000     -30.36700000     -73.63600000
C      -47.93270000     -31.78580000     -72.03010000
H      -47.13780000     -31.16920000     -71.55710000
H      -48.50830000     -31.03620000     -72.52370000
C      -47.34720000     -32.87030000     -73.03940000
H      -48.13700000     -33.24800000     -73.71370000
H      -46.65520000     -32.26640000     -73.65940000
C      -43.94810000     -32.52590000     -73.89970000
H      -43.14080000     -32.52170000     -74.53220000
H      -44.83600000     -32.44470000     -74.59990000
C      -44.05590000     -33.88240000     -73.15520000
C      -42.99830000     -34.70080000     -72.92200000
C      -45.30970000     -34.43820000     -72.56880000
H      -42.11380000     -34.61550000     -73.45420000
C      -44.99890000     -35.61770000     -71.89360000
C      -46.66380000     -34.04930000     -72.40710000
C      -47.42170000     -34.98540000     -71.78430000
S      -43.38130000     -36.18340000     -72.05500000
S      -46.46430000     -36.38530000     -71.25010000
H      -48.54090000     -34.92430000     -71.79450000
