40
Properties=species:S:1:pos:R:3 #=T CELL(abcABC):=T 1.889726e+02=T 90.00000=T Traj:=T positionsangstrom=T Step:=T 0=T Bead:=T pbc="F F F"
C      -46.18760000     -33.50560000     -68.54850000
C      -46.37400000     -32.15570000     -69.04360000
C      -45.30710000     -31.44450000     -69.48160000
C      -43.97040000     -31.93230000     -69.50170000
C      -43.77250000     -33.18700000     -68.99520000
C      -44.90560000     -33.97760000     -68.56580000
H      -46.99970000     -34.18520000     -68.33550000
H      -45.63260000     -30.43120000     -69.74470000
H      -42.77770000     -33.57150000     -68.86150000
H      -44.70000000     -34.98810000     -68.34820000
C      -42.82770000     -31.16290000     -70.12750000
H      -41.99620000     -31.20050000     -69.41870000
H      -43.10670000     -30.10340000     -70.13360000
C      -47.79530000     -31.52740000     -69.13860000
H      -48.43120000     -31.60560000     -68.17760000
H      -47.59150000     -30.45270000     -69.39660000
S      -42.40960000     -31.75070000     -71.85710000
S      -48.73540000     -32.38800000     -70.47510000
C      -43.97210000     -31.37630000     -72.77430000
H      -44.86490000     -31.45820000     -72.14930000
H      -43.77230000     -30.35650000     -73.06410000
C      -47.88390000     -31.77850000     -71.98080000
H      -46.95350000     -31.35270000     -71.62170000
H      -48.46780000     -30.97510000     -72.47920000
C      -47.61830000     -32.86750000     -72.99730000
H      -48.57290000     -33.30210000     -73.28710000
H      -47.22710000     -32.44990000     -73.97420000
C      -44.21760000     -32.32070000     -73.96010000
H      -43.48230000     -32.34110000     -74.86910000
H      -45.14860000     -32.02700000     -74.35190000
C      -44.24340000     -33.74890000     -73.36780000
C      -43.07370000     -34.48190000     -73.37190000
C      -45.34190000     -34.35420000     -72.64550000
H      -42.15600000     -34.24330000     -73.94910000
C      -44.92400000     -35.58490000     -72.10810000
C      -46.76930000     -34.04640000     -72.45660000
C      -47.37110000     -35.11010000     -71.80370000
S      -43.23540000     -35.99470000     -72.45400000
S      -46.31510000     -36.40390000     -71.34310000
H      -48.37590000     -35.21180000     -71.46650000
