40
Properties=species:S:1:pos:R:3 #=T CELL(abcABC):=T 1.889726e+02=T 90.00000=T Traj:=T positionsangstrom=T Step:=T 0=T Bead:=T pbc="F F F"
C      -45.81620000     -32.03250000     -69.32600000
C      -46.97260000     -32.75150000     -69.59750000
C      -47.67590000     -32.52370000     -70.78160000
C      -47.17370000     -31.62560000     -71.72200000
C      -46.02910000     -30.86770000     -71.42770000
C      -45.33340000     -31.13390000     -70.28270000
H      -45.24150000     -32.36080000     -68.44360000
H      -48.61330000     -33.10020000     -70.83490000
H      -45.63380000     -30.22130000     -72.21210000
H      -44.43700000     -30.62020000     -70.03340000
C      -47.94710000     -31.34180000     -72.98200000
H      -48.08630000     -30.26790000     -73.16260000
H      -48.93960000     -31.80510000     -73.03110000
C      -47.49020000     -33.66430000     -68.46920000
H      -47.25370000     -33.20600000     -67.53360000
H      -48.54010000     -33.65480000     -68.55670000
S      -46.99650000     -31.85210000     -74.50710000
S      -46.77150000     -35.33390000     -68.15100000
C      -46.72060000     -33.58890000     -74.14160000
H      -46.97640000     -33.84380000     -73.08570000
H      -47.29700000     -34.19270000     -74.76790000
C      -46.74660000     -36.26060000     -69.81450000
H      -47.83640000     -36.39030000     -70.22700000
H      -46.22510000     -37.14860000     -69.51030000
C      -46.03320000     -35.62340000     -70.98050000
H      -46.00520000     -36.38800000     -71.77430000
H      -46.75140000     -34.86380000     -71.39800000
C      -45.20810000     -34.05720000     -74.29980000
H      -44.86210000     -33.63200000     -75.23980000
H      -45.03580000     -35.04850000     -74.47010000
C      -44.15280000     -33.64470000     -73.26660000
C      -43.11480000     -32.81250000     -73.56680000
C      -44.02350000     -34.08430000     -71.90340000
H      -42.95580000     -32.30280000     -74.45430000
C      -42.85820000     -33.58010000     -71.33050000
C      -44.68850000     -34.94580000     -70.86880000
C      -43.96320000     -35.07610000     -69.70980000
S      -41.92770000     -32.53420000     -72.31180000
S      -42.51890000     -34.15480000     -69.68410000
H      -44.23670000     -35.69860000     -68.90290000
