40
Properties=species:S:1:pos:R:3 #=T CELL(abcABC):=T 1.889726e+02=T 90.00000=T Traj:=T positionsangstrom=T Step:=T 0=T Bead:=T pbc="F F F"
C      -46.13310000     -32.53050000     -69.25100000
C      -47.28580000     -33.17380000     -69.80500000
C      -47.85240000     -32.49140000     -70.91550000
C      -47.30770000     -31.37960000     -71.53960000
C      -46.17710000     -30.78640000     -70.91650000
C      -45.61970000     -31.31640000     -69.70510000
H      -45.73100000     -32.99490000     -68.38260000
H      -48.77880000     -32.92380000     -71.28650000
H      -45.61940000     -29.95340000     -71.35390000
H      -44.80270000     -30.86200000     -69.22190000
C      -47.86490000     -31.02910000     -72.90350000
H      -47.81600000     -29.97840000     -73.07120000
H      -48.90970000     -31.42310000     -73.11360000
C      -47.90540000     -34.40060000     -69.22600000
H      -48.66430000     -34.16340000     -68.51420000
H      -48.35690000     -35.02480000     -69.99000000
S      -46.75260000     -31.62910000     -74.22930000
S      -46.78550000     -35.49490000     -68.29290000
C      -46.70770000     -33.48590000     -74.07810000
H      -47.16880000     -33.81740000     -73.07550000
H      -47.34080000     -33.78190000     -74.86230000
C      -45.96490000     -36.54910000     -69.65670000
H      -46.77930000     -37.31810000     -69.76790000
H      -45.19150000     -37.11270000     -69.11480000
C      -45.57470000     -35.90160000     -70.93400000
H      -45.41070000     -36.74130000     -71.60940000
H      -46.42680000     -35.27400000     -71.15140000
C      -45.38910000     -34.29770000     -74.03800000
H      -44.99380000     -34.47020000     -75.04420000
H      -45.55330000     -35.30940000     -73.62330000
C      -44.33760000     -33.56960000     -73.23510000
C      -43.47260000     -32.67680000     -73.66120000
C      -44.01300000     -34.01750000     -71.88010000
H      -43.43870000     -32.30650000     -74.64550000
C      -42.82180000     -33.38790000     -71.46930000
C      -44.39700000     -35.00630000     -70.88000000
C      -43.55810000     -35.03190000     -69.78640000
S      -42.21830000     -32.24480000     -72.53060000
S      -42.30240000     -33.84030000     -69.84980000
H      -43.71860000     -35.58660000     -68.93010000
