40
Properties=species:S:1:pos:R:3 #=T CELL(abcABC):=T 1.889726e+02=T 90.00000=T Traj:=T positionsangstrom=T Step:=T 0=T Bead:=T pbc="F F F"
C      -41.51930000     -35.42460000     -70.65840000
C      -42.74670000     -35.73230000     -70.05990000
C      -43.81240000     -36.23390000     -70.92060000
C      -43.70060000     -36.20580000     -72.30220000
C      -42.57820000     -35.55960000     -72.85730000
C      -41.45670000     -35.30310000     -72.07870000
H      -40.72390000     -35.01880000     -70.03350000
H      -44.75970000     -36.60770000     -70.47310000
H      -42.48740000     -35.44060000     -73.90190000
H      -40.47860000     -34.94030000     -72.49000000
C      -44.88940000     -36.66120000     -73.18130000
H      -45.77800000     -36.77540000     -72.54460000
H      -44.82480000     -37.74780000     -73.56870000
C      -42.80660000     -35.56420000     -68.58700000
H      -43.65510000     -36.10940000     -68.17080000
H      -41.89110000     -36.05680000     -68.07830000
S      -45.26800000     -35.55840000     -74.69500000
S      -42.84870000     -33.78070000     -68.13510000
C      -45.66630000     -33.85480000     -73.84500000
H      -44.73170000     -33.50310000     -73.40010000
H      -45.95370000     -33.14060000     -74.61070000
C      -44.59610000     -33.21440000     -68.57690000
H      -44.94550000     -32.47320000     -67.83790000
H      -45.23710000     -34.04520000     -68.36450000
C      -44.92100000     -32.83120000     -70.09430000
H      -43.87690000     -32.60700000     -70.54940000
H      -45.09630000     -33.80270000     -70.68200000
C      -46.77630000     -33.95800000     -72.81350000
H      -46.46300000     -34.47210000     -71.89930000
H      -47.62920000     -34.49610000     -73.14890000
C      -47.35260000     -32.59450000     -72.42620000
C      -48.45640000     -32.08650000     -73.12450000
C      -46.94530000     -31.72820000     -71.28470000
H      -48.89460000     -32.46730000     -74.05330000
C      -47.73830000     -30.60730000     -71.19340000
C      -45.92500000     -31.75980000     -70.24140000
C      -46.04950000     -30.71570000     -69.44220000
S      -48.95780000     -30.50960000     -72.44650000
S      -47.39850000     -29.64300000     -69.83390000
H      -45.35540000     -30.31760000     -68.64370000
