40
Properties=species:S:1:pos:R:3 #=T CELL(abcABC):=T 1.889726e+02=T 90.00000=T Traj:=T positionsangstrom=T Step:=T 0=T Bead:=T pbc="F F F"
C      -45.85250000     -32.94680000     -68.48600000
C      -46.13970000     -31.71960000     -69.18510000
C      -45.10540000     -31.10290000     -69.91320000
C      -43.83530000     -31.68440000     -70.07310000
C      -43.59020000     -32.92740000     -69.43020000
C      -44.61100000     -33.56050000     -68.74070000
H      -46.74440000     -33.44470000     -68.14860000
H      -45.42410000     -30.17710000     -70.44170000
H      -42.57790000     -33.39010000     -69.35540000
H      -44.41740000     -34.48070000     -68.23790000
C      -42.73370000     -30.95700000     -70.88640000
H      -41.81040000     -30.64810000     -70.40960000
H      -43.24840000     -29.98320000     -71.13540000
C      -47.50600000     -31.12310000     -69.25140000
H      -48.14020000     -31.36040000     -68.45620000
H      -47.48330000     -30.04060000     -69.36930000
S      -42.30500000     -31.75460000     -72.48160000
S      -48.52860000     -31.83030000     -70.71670000
C      -43.86200000     -31.95400000     -73.38660000
H      -44.64240000     -31.81140000     -72.61530000
H      -43.91280000     -31.12130000     -74.10100000
C      -47.55540000     -31.74580000     -72.20390000
H      -46.54040000     -31.35470000     -71.89240000
H      -47.96530000     -31.00910000     -72.88460000
C      -47.31610000     -33.02180000     -73.08640000
H      -48.34570000     -33.13290000     -73.56660000
H      -46.66170000     -32.71260000     -73.86020000
C      -44.06460000     -33.27010000     -74.09310000
H      -43.20880000     -33.57740000     -74.75220000
H      -44.92420000     -33.03080000     -74.80060000
C      -44.26520000     -34.40570000     -73.09510000
C      -43.36670000     -35.45130000     -73.01530000
C      -45.42240000     -34.53690000     -72.23590000
H      -42.51260000     -35.59990000     -73.68350000
C      -45.21590000     -35.64610000     -71.37430000
C      -46.83730000     -34.15070000     -72.25560000
C      -47.68690000     -34.86630000     -71.45490000
S      -43.77510000     -36.56480000     -71.71410000
S      -46.77470000     -36.15890000     -70.56240000
H      -48.74190000     -34.60090000     -71.26770000
