40
Properties=species:S:1:pos:R:3 #=T CELL(abcABC):=T 1.889726e+02=T 90.00000=T Traj:=T positionsangstrom=T Step:=T 0=T Bead:=T pbc="F F F"
C      -46.47860000     -32.16600000     -69.69090000
C      -47.46140000     -32.95870000     -70.22960000
C      -47.71810000     -32.84040000     -71.63370000
C      -46.95360000     -31.89880000     -72.36650000
C      -46.00220000     -31.08240000     -71.75480000
C      -45.77720000     -31.16370000     -70.40830000
H      -46.38750000     -32.23010000     -68.59830000
H      -48.62180000     -33.30710000     -72.21560000
H      -45.41690000     -30.34030000     -72.29450000
H      -45.04440000     -30.57050000     -69.87180000
C      -47.30290000     -31.71960000     -73.80710000
H      -47.24430000     -30.69340000     -74.10180000
H      -48.36820000     -32.07390000     -73.97580000
C      -48.24980000     -33.89550000     -69.31940000
H      -48.96410000     -33.29860000     -68.69130000
H      -48.78010000     -34.65060000     -69.93160000
S      -46.29070000     -32.58620000     -74.98050000
S      -47.15960000     -35.00430000     -68.28660000
C      -46.12940000     -34.25000000     -74.14180000
H      -46.66490000     -34.18670000     -73.16680000
H      -46.65150000     -35.03810000     -74.74540000
C      -46.49010000     -36.24080000     -69.43710000
H      -47.23510000     -36.92570000     -69.86150000
H      -45.71890000     -36.76900000     -68.74310000
C      -45.65980000     -35.80660000     -70.65470000
H      -45.21980000     -36.63590000     -71.15520000
H      -46.35540000     -35.32060000     -71.32030000
C      -44.68230000     -34.62570000     -73.88760000
H      -44.14590000     -34.60640000     -74.85560000
H      -44.69950000     -35.64510000     -73.51790000
C      -44.04520000     -33.75980000     -72.82510000
C      -43.08780000     -32.79320000     -73.28750000
C      -43.99320000     -33.92730000     -71.38920000
H      -43.12890000     -32.50540000     -74.28140000
C      -43.09270000     -33.00430000     -70.80130000
C      -44.48490000     -34.85070000     -70.42840000
C      -43.93950000     -34.65540000     -69.20360000
S      -42.30430000     -32.00230000     -71.93380000
S      -42.67850000     -33.36060000     -69.09390000
H      -44.08090000     -35.14720000     -68.25550000
