40
Properties=species:S:1:pos:R:3 #=T CELL(abcABC):=T 1.889726e+02=T 90.00000=T Traj:=T positionsangstrom=T Step:=T 0=T Bead:=T pbc="F F F"
C      -46.48110000     -32.03280000     -69.86750000
C      -47.52570000     -32.84500000     -70.42020000
C      -47.80640000     -32.60360000     -71.75990000
C      -47.05440000     -31.63470000     -72.45510000
C      -46.10070000     -30.80860000     -71.81510000
C      -45.72040000     -31.08790000     -70.49490000
H      -46.26720000     -32.32090000     -68.81310000
H      -48.58510000     -33.06000000     -72.25180000
H      -45.51280000     -30.07620000     -72.40420000
H      -45.10980000     -30.47270000     -69.81290000
C      -47.28830000     -31.56960000     -73.90700000
H      -47.14220000     -30.53470000     -74.37030000
H      -48.34730000     -31.94820000     -74.09180000
C      -48.30300000     -33.83660000     -69.68040000
H      -49.10090000     -33.45430000     -69.03860000
H      -48.68560000     -34.71140000     -70.25830000
S      -46.00290000     -32.55590000     -74.76990000
S      -47.38910000     -34.74510000     -68.37300000
C      -46.18080000     -34.19040000     -73.91140000
H      -46.78480000     -33.96380000     -72.94280000
H      -46.80630000     -34.81380000     -74.55110000
C      -46.65780000     -36.21260000     -69.30510000
H      -47.34230000     -36.92690000     -69.71160000
H      -46.14710000     -36.83380000     -68.68200000
C      -45.77140000     -35.75630000     -70.52840000
H      -45.38840000     -36.65430000     -70.99330000
H      -46.50450000     -35.42440000     -71.22580000
C      -44.86730000     -34.84390000     -73.67370000
H      -44.31150000     -34.93120000     -74.59610000
H      -45.12100000     -35.89300000     -73.37490000
C      -43.96870000     -34.03490000     -72.74110000
C      -42.98930000     -33.21650000     -73.32450000
C      -43.89500000     -34.05970000     -71.30520000
H      -42.64660000     -33.13930000     -74.39680000
C      -42.88850000     -33.30440000     -70.81710000
C      -44.61000000     -34.75550000     -70.25970000
C      -44.07330000     -34.53660000     -69.03790000
S      -42.03120000     -32.44200000     -72.06460000
S      -42.72850000     -33.32150000     -69.07370000
H      -44.33060000     -34.94300000     -68.05620000
