40
Properties=species:S:1:pos:R:3 #=T CELL(abcABC):=T 1.889726e+02=T 90.00000=T Traj:=T positionsangstrom=T Step:=T 0=T Bead:=T pbc="F F F"
C      -46.33130000     -31.62450000     -69.62350000
C      -47.46970000     -32.26740000     -70.17450000
C      -47.68310000     -32.07420000     -71.55770000
C      -46.86390000     -31.30660000     -72.40350000
C      -45.74610000     -30.76950000     -71.77940000
C      -45.48100000     -30.84910000     -70.40970000
H      -46.08350000     -31.72450000     -68.52180000
H      -48.59490000     -32.62460000     -71.95490000
H      -45.14200000     -30.11700000     -72.45790000
H      -44.61890000     -30.41960000     -69.97240000
C      -46.91030000     -31.45200000     -73.94310000
H      -46.67580000     -30.53230000     -74.47360000
H      -47.94950000     -31.63470000     -74.35560000
C      -48.39450000     -33.06690000     -69.34920000
H      -49.07910000     -32.34340000     -68.78880000
H      -49.12130000     -33.60560000     -69.97680000
S      -45.66340000     -32.65530000     -74.62300000
S      -47.71470000     -34.29750000     -68.23990000
C      -46.16050000     -34.23460000     -73.96700000
H      -46.78450000     -34.05690000     -73.13860000
H      -46.81100000     -34.61140000     -74.75120000
C      -47.14660000     -35.67470000     -69.36570000
H      -48.08540000     -36.23350000     -69.62530000
H      -46.61780000     -36.38770000     -68.75740000
C      -46.29610000     -35.26300000     -70.56670000
H      -46.18510000     -36.13520000     -71.18740000
H      -46.97660000     -34.60400000     -71.15300000
C      -45.00590000     -35.23310000     -73.71060000
H      -44.59830000     -35.49040000     -74.71010000
H      -45.38460000     -36.12680000     -73.26840000
C      -43.96480000     -34.70860000     -72.83510000
C      -42.73320000     -34.40940000     -73.37690000
C      -44.01510000     -34.35480000     -71.43920000
H      -42.50560000     -34.57270000     -74.45510000
C      -42.91830000     -33.68970000     -71.00420000
C      -44.96450000     -34.57100000     -70.37320000
C      -44.46350000     -34.12580000     -69.17020000
S      -41.64150000     -33.55920000     -72.23100000
S      -42.93120000     -33.32270000     -69.27700000
H      -44.94650000     -34.09380000     -68.20360000
