40
Properties=species:S:1:pos:R:3 #=T CELL(abcABC):=T 1.889726e+02=T 90.00000=T Traj:=T positionsangstrom=T Step:=T 0=T Bead:=T pbc="F F F"
C      -46.57420000     -31.92150000     -69.80870000
C      -47.61350000     -32.62140000     -70.42870000
C      -47.89280000     -32.33670000     -71.77520000
C      -47.05470000     -31.49340000     -72.44680000
C      -46.02520000     -30.82530000     -71.83730000
C      -45.80860000     -30.97020000     -70.48300000
H      -46.34270000     -32.01870000     -68.75310000
H      -48.64990000     -32.95760000     -72.24270000
H      -45.34280000     -30.32580000     -72.53070000
H      -44.99370000     -30.40360000     -70.09540000
C      -47.18660000     -31.53610000     -73.94540000
H      -46.98180000     -30.62090000     -74.35440000
H      -48.15990000     -31.94160000     -74.20070000
C      -48.48060000     -33.61070000     -69.58280000
H      -49.21610000     -33.02450000     -68.99890000
H      -49.09930000     -34.11330000     -70.27320000
S      -45.84180000     -32.58780000     -74.69390000
S      -47.48270000     -34.77150000     -68.36660000
C      -46.10740000     -34.22660000     -73.96760000
H      -46.60980000     -34.09740000     -73.01510000
H      -46.78120000     -34.83300000     -74.53660000
C      -46.69740000     -36.12020000     -69.30070000
H      -47.58010000     -36.76070000     -69.63230000
H      -46.06540000     -36.53100000     -68.46550000
C      -45.87430000     -35.68450000     -70.52080000
H      -45.54810000     -36.67800000     -70.99510000
H      -46.38700000     -35.24370000     -71.41360000
C      -44.85670000     -34.96510000     -73.60670000
H      -44.44770000     -35.29430000     -74.56080000
H      -45.10340000     -35.89460000     -73.06380000
C      -43.81840000     -34.25130000     -72.81660000
C      -42.75260000     -33.54720000     -73.29640000
C      -43.92360000     -34.15310000     -71.34950000
H      -42.47370000     -33.38040000     -74.32670000
C      -42.93240000     -33.36900000     -70.83480000
C      -44.68740000     -34.78900000     -70.25730000
C      -44.11090000     -34.49770000     -69.07540000
S      -41.95060000     -32.59590000     -72.08080000
S      -42.78780000     -33.30370000     -69.12940000
H      -44.60960000     -34.68750000     -68.09650000
