40
Properties=species:S:1:pos:R:3 #=T CELL(abcABC):=T 1.889726e+02=T 90.00000=T Traj:=T positionsangstrom=T Step:=T 0=T Bead:=T pbc="F F F"
C      -46.44800000     -32.41750000     -69.12950000
C      -46.67500000     -31.57130000     -70.21520000
C      -45.61790000     -31.00780000     -70.98180000
C      -44.26140000     -31.20170000     -70.56810000
C      -44.05860000     -32.02560000     -69.44190000
C      -45.08710000     -32.77440000     -68.87400000
H      -47.26950000     -32.90580000     -68.47000000
H      -45.87570000     -30.34790000     -71.81330000
H      -43.11160000     -32.13320000     -69.03520000
H      -44.86050000     -33.41490000     -68.00620000
C      -43.13990000     -30.41380000     -71.21000000
H      -42.42610000     -30.13240000     -70.49520000
H      -43.73850000     -29.57570000     -71.64030000
C      -48.15780000     -31.30120000     -70.62340000
H      -48.67290000     -31.30890000     -69.68700000
H      -48.20910000     -30.41490000     -71.20610000
S      -42.26370000     -31.33240000     -72.51090000
S      -48.92840000     -32.71540000     -71.62160000
C      -43.74990000     -31.97110000     -73.50520000
H      -44.59590000     -31.58770000     -72.88240000
H      -43.83500000     -31.38210000     -74.43540000
C      -47.83560000     -32.84770000     -73.14840000
H      -47.05020000     -32.05750000     -73.01300000
H      -48.38900000     -32.49440000     -73.98780000
C      -47.40970000     -34.38030000     -73.27920000
H      -48.33260000     -35.03250000     -73.43460000
H      -46.74400000     -34.51190000     -74.15760000
C      -43.96420000     -33.45260000     -73.67870000
H      -43.26050000     -33.76150000     -74.48390000
H      -44.90940000     -33.51260000     -74.09840000
C      -43.94470000     -34.24700000     -72.38560000
C      -42.83150000     -34.61210000     -71.71050000
C      -45.16680000     -34.81030000     -71.84880000
H      -41.85780000     -34.28710000     -71.96860000
C      -44.83280000     -35.61890000     -70.70790000
C      -46.58860000     -34.95250000     -72.10310000
C      -47.22820000     -35.72510000     -71.13460000
S      -43.14240000     -35.58660000     -70.31350000
S      -46.15940000     -36.47690000     -69.98170000
H      -48.26170000     -35.79160000     -71.12480000
