40
Properties=species:S:1:pos:R:3 #=T CELL(abcABC):=T 1.889726e+02=T 90.00000=T Traj:=T positionsangstrom=T Step:=T 0=T Bead:=T pbc="F F F"
C      -45.83420000     -31.35210000     -69.96180000
C      -47.10950000     -31.68870000     -70.39790000
C      -47.40570000     -31.47040000     -71.76580000
C      -46.44270000     -31.04890000     -72.68090000
C      -45.15460000     -30.69720000     -72.23610000
C      -44.90760000     -30.81520000     -70.86920000
H      -45.54600000     -31.37670000     -68.90070000
H      -48.30300000     -31.76340000     -72.20850000
H      -44.41390000     -30.41390000     -72.92300000
H      -43.88340000     -30.50660000     -70.39710000
C      -46.70480000     -31.24270000     -74.15540000
H      -46.41650000     -30.30730000     -74.74530000
H      -47.80450000     -31.35970000     -74.27990000
C      -48.13190000     -32.20280000     -69.42890000
H      -48.63800000     -31.34930000     -68.95880000
H      -48.82670000     -32.83000000     -69.90250000
S      -45.95180000     -32.66910000     -75.03770000
S      -47.28490000     -33.36570000     -68.18490000
C      -46.43300000     -34.00340000     -73.77290000
H      -46.31800000     -33.46100000     -72.79940000
H      -47.57990000     -34.29660000     -73.93180000
C      -47.57250000     -34.95290000     -68.98640000
H      -48.66580000     -35.10270000     -69.12570000
H      -47.38760000     -35.73480000     -68.21150000
C      -46.74840000     -35.19530000     -70.27920000
H      -46.85000000     -36.24820000     -70.53020000
H      -47.12250000     -34.52910000     -71.07310000
C      -45.51880000     -35.17100000     -73.56420000
H      -45.17270000     -35.60910000     -74.50010000
H      -46.13880000     -35.99290000     -73.05050000
C      -44.35080000     -34.79420000     -72.73030000
C      -43.11530000     -34.57210000     -73.26640000
C      -44.25090000     -34.77380000     -71.29000000
H      -42.89760000     -34.73610000     -74.32430000
C      -42.95750000     -34.58360000     -70.81260000
C      -45.19140000     -34.87450000     -70.17800000
C      -44.58610000     -34.66200000     -68.92260000
S      -41.93060000     -34.09410000     -72.10140000
S      -42.80430000     -34.45480000     -69.01400000
H      -45.11190000     -34.62310000     -67.96440000
