40
Properties=species:S:1:pos:R:3 #=T CELL(abcABC):=T 1.889726e+02=T 90.00000=T Traj:=T positionsangstrom=T Step:=T 0=T Bead:=T pbc="F F F"
C      -46.34100000     -32.43000000     -69.21920000
C      -46.44020000     -31.45580000     -70.23290000
C      -45.29690000     -31.02970000     -70.88360000
C      -43.99070000     -31.39460000     -70.48930000
C      -43.84310000     -32.34550000     -69.44550000
C      -45.04220000     -32.85760000     -68.90150000
H      -47.20030000     -32.91950000     -68.73840000
H      -45.46120000     -30.29120000     -71.72490000
H      -42.97040000     -32.68650000     -68.94420000
H      -44.89040000     -33.57270000     -68.05540000
C      -42.87840000     -30.79700000     -71.29370000
H      -41.90950000     -30.77200000     -70.69450000
H      -43.05260000     -29.72120000     -71.54510000
C      -47.77650000     -30.89060000     -70.61170000
H      -48.38130000     -30.47660000     -69.80430000
H      -47.60630000     -30.09100000     -71.35250000
S      -42.17770000     -31.64690000     -72.85980000
S      -48.80050000     -32.15350000     -71.47530000
C      -43.80240000     -32.13380000     -73.76390000
H      -44.68980000     -31.66760000     -73.28000000
H      -43.73260000     -31.80390000     -74.73850000
C      -47.86480000     -32.57790000     -73.01820000
H      -46.87400000     -32.01510000     -72.94090000
H      -48.39840000     -32.27130000     -73.90530000
C      -47.44240000     -34.07920000     -73.13990000
H      -48.30250000     -34.66530000     -73.47110000
H      -46.78350000     -34.17270000     -74.04210000
C      -44.07180000     -33.72140000     -73.75690000
H      -43.27700000     -34.19270000     -74.39650000
H      -45.02570000     -33.78950000     -74.34700000
C      -44.16160000     -34.46020000     -72.44170000
C      -42.98020000     -34.98170000     -71.92020000
C      -45.34120000     -34.78060000     -71.71130000
H      -41.96080000     -34.92340000     -72.36500000
C      -45.03680000     -35.57070000     -70.58840000
C      -46.75480000     -34.65620000     -71.90680000
C      -47.39940000     -35.44230000     -70.96510000
S      -43.33430000     -35.88180000     -70.38530000
S      -46.45500000     -36.29800000     -69.75930000
H      -48.52810000     -35.52080000     -70.99350000
