40
Properties=species:S:1:pos:R:3 #=T CELL(abcABC):=T 1.889726e+02=T 90.00000=T Traj:=T positionsangstrom=T Step:=T 0=T Bead:=T pbc="F F F"
C      -46.76010000     -37.61410000     -72.47010000
C      -46.61750000     -36.32140000     -73.13660000
C      -47.38500000     -35.25020000     -72.68770000
C      -48.10430000     -35.37660000     -71.45680000
C      -48.02870000     -36.55160000     -70.73860000
C      -47.53450000     -37.75930000     -71.30980000
H      -46.32640000     -38.45780000     -72.97910000
H      -47.53670000     -34.39090000     -73.43940000
H      -48.78210000     -36.62320000     -69.89070000
H      -47.63930000     -38.68030000     -70.78270000
C      -49.00400000     -34.29400000     -70.94960000
H      -49.50910000     -34.79990000     -70.06600000
H      -49.68700000     -33.87580000     -71.61760000
C      -45.89360000     -36.11170000     -74.43410000
H      -46.03730000     -36.99300000     -75.08070000
H      -46.44360000     -35.32400000     -74.86110000
S      -47.97160000     -32.80050000     -70.53290000
S      -44.09080000     -35.63780000     -74.32920000
C      -47.07050000     -33.24790000     -68.90590000
H      -47.24890000     -32.38560000     -68.22770000
H      -47.49060000     -34.24120000     -68.45630000
C      -43.98790000     -33.87400000     -73.71500000
H      -44.39560000     -33.30160000     -74.48350000
H      -42.92620000     -33.60330000     -73.83220000
C      -44.30900000     -33.51580000     -72.29570000
H      -45.40870000     -33.61110000     -72.06300000
H      -43.93450000     -34.25800000     -71.64450000
C      -45.51440000     -33.46230000     -69.10450000
H      -45.37270000     -34.20040000     -69.93940000
H      -44.98670000     -33.85710000     -68.22500000
C      -44.76070000     -32.13170000     -69.32880000
C      -44.56770000     -31.30030000     -68.23220000
C      -43.96280000     -31.71180000     -70.49560000
H      -45.09460000     -31.40730000     -67.31700000
C      -43.16600000     -30.62600000     -70.13250000
C      -43.77540000     -32.19290000     -71.84330000
C      -42.89210000     -31.40950000     -72.51210000
S      -43.50950000     -29.88040000     -68.59420000
S      -42.24080000     -30.10800000     -71.50720000
H      -42.37120000     -31.53070000     -73.48700000
