40
Properties=species:S:1:pos:R:3 #=T CELL(abcABC):=T 1.889726e+02=T 90.00000=T Traj:=T positionsangstrom=T Step:=T 0=T Bead:=T pbc="F F F"
C      -46.88900000     -32.85080000     -69.28620000
C      -47.25030000     -31.96630000     -70.34320000
C      -46.29710000     -31.17320000     -70.99970000
C      -44.98530000     -31.03440000     -70.44440000
C      -44.71720000     -31.87310000     -69.35220000
C      -45.60140000     -32.80390000     -68.82370000
H      -47.64280000     -33.62000000     -69.04240000
H      -46.48620000     -30.67750000     -71.96070000
H      -43.87360000     -31.73350000     -68.72870000
H      -45.19530000     -33.44380000     -67.97840000
C      -43.97960000     -30.09580000     -71.05820000
H      -43.38900000     -29.73930000     -70.20900000
H      -44.36950000     -29.25830000     -71.60820000
C      -48.65340000     -32.02970000     -70.96630000
H      -49.39250000     -31.86340000     -70.16720000
H      -48.73160000     -31.24210000     -71.61410000
S      -42.75370000     -30.90290000     -72.20480000
S      -48.87560000     -33.52580000     -71.97310000
C      -43.89420000     -31.61150000     -73.41490000
H      -44.91760000     -31.47840000     -73.07920000
H      -43.73180000     -31.12140000     -74.38010000
C      -47.58090000     -33.35660000     -73.30470000
H      -46.96820000     -32.51930000     -73.02840000
H      -48.15010000     -33.21610000     -74.23830000
C      -46.73520000     -34.63980000     -73.43210000
H      -47.41560000     -35.44850000     -73.74260000
H      -45.99440000     -34.43890000     -74.19060000
C      -43.67530000     -33.15350000     -73.68110000
H      -42.74400000     -33.27260000     -74.32140000
H      -44.51240000     -33.57870000     -74.34830000
C      -43.52410000     -34.09600000     -72.43360000
C      -42.44130000     -34.27170000     -71.58810000
C      -44.69730000     -34.73280000     -71.84600000
H      -41.46380000     -33.92400000     -71.87260000
C      -44.43440000     -35.25490000     -70.57060000
C      -46.04630000     -35.08350000     -72.18040000
C      -46.66080000     -35.96870000     -71.30630000
S      -42.77790000     -35.06220000     -70.10380000
S      -45.64760000     -36.30070000     -69.90200000
H      -47.69530000     -36.31610000     -71.40630000
