40
Properties=species:S:1:pos:R:3 #=T CELL(abcABC):=T 1.889726e+02=T 90.00000=T Traj:=T positionsangstrom=T Step:=T 0=T Bead:=T pbc="F F F"
C      -44.88860000     -29.78740000     -70.06160000
C      -46.14090000     -30.45220000     -70.24330000
C      -46.55420000     -30.64340000     -71.52260000
C      -45.73740000     -30.25140000     -72.62990000
C      -44.48780000     -29.68410000     -72.49390000
C      -44.10930000     -29.38060000     -71.15850000
H      -44.57560000     -29.65250000     -69.02680000
H      -47.54550000     -30.90400000     -71.79140000
H      -43.70530000     -29.60960000     -73.28930000
H      -43.12580000     -28.85020000     -70.97030000
C      -46.32850000     -30.43660000     -74.05970000
H      -46.13590000     -29.49410000     -74.58650000
H      -47.43660000     -30.47480000     -73.90000000
C      -46.96580000     -30.98320000     -69.10030000
H      -46.89110000     -30.26900000     -68.15940000
H      -48.00460000     -30.92020000     -69.47500000
S      -45.56320000     -31.79890000     -74.97590000
S      -46.77050000     -32.66430000     -68.53710000
C      -46.08410000     -33.38140000     -74.20790000
H      -47.19200000     -33.47970000     -74.20820000
H      -45.60510000     -34.13640000     -74.72350000
C      -44.92500000     -32.85830000     -68.36590000
H      -44.80830000     -33.66510000     -67.61400000
H      -44.56330000     -31.97610000     -67.77550000
C      -44.15200000     -33.18330000     -69.67940000
H      -44.56900000     -32.59220000     -70.52080000
H      -43.12240000     -32.98730000     -69.44970000
C      -45.55420000     -33.45920000     -72.78110000
H      -46.10080000     -32.94380000     -71.95650000
H      -44.57360000     -33.05130000     -72.75600000
C      -45.47910000     -34.88970000     -72.27690000
C      -45.97140000     -35.94330000     -72.97670000
C      -44.90780000     -35.33250000     -71.01740000
H      -46.27760000     -35.85040000     -74.00710000
C      -44.65310000     -36.74220000     -71.02640000
C      -44.10380000     -34.69170000     -69.91160000
C      -43.39680000     -35.55270000     -69.16590000
S      -45.57170000     -37.52130000     -72.24570000
S      -43.68700000     -37.27270000     -69.72640000
H      -42.69710000     -35.19800000     -68.33830000
