40
Properties=species:S:1:pos:R:3 #=T CELL(abcABC):=T 1.889726e+02=T 90.00000=T Traj:=T positionsangstrom=T Step:=T 0=T Bead:=T pbc="F F F"
C      -46.71970000     -32.61250000     -69.62940000
C      -47.36520000     -32.09920000     -70.83380000
C      -46.70650000     -31.10420000     -71.61210000
C      -45.36960000     -30.75520000     -71.34240000
C      -44.70800000     -31.37460000     -70.24250000
C      -45.42430000     -32.16660000     -69.35790000
H      -47.41060000     -33.15190000     -68.87740000
H      -47.32030000     -30.62480000     -72.38520000
H      -43.69620000     -31.04750000     -69.97090000
H      -44.84160000     -32.26910000     -68.48790000
C      -44.66840000     -29.85720000     -72.33310000
H      -44.01450000     -29.18300000     -71.73620000
H      -45.40050000     -29.29380000     -72.97510000
C      -48.80870000     -32.54760000     -71.04380000
H      -49.33860000     -32.46860000     -70.05210000
H      -49.43240000     -31.97620000     -71.74070000
S      -43.56490000     -30.80330000     -73.42800000
S      -48.87100000     -34.36940000     -71.66670000
C      -44.61980000     -32.31280000     -73.91440000
H      -45.41150000     -32.31200000     -73.23110000
H      -45.03330000     -32.23140000     -74.91460000
C      -47.55640000     -34.47860000     -72.98690000
H      -47.07290000     -33.48870000     -72.85910000
H      -48.03140000     -34.47880000     -73.92880000
C      -46.56390000     -35.61080000     -72.70630000
H      -47.13900000     -36.55100000     -72.61280000
H      -45.90740000     -35.88650000     -73.58170000
C      -43.90090000     -33.61400000     -73.62410000
H      -42.89900000     -33.68110000     -74.14930000
H      -44.57550000     -34.48690000     -74.07350000
C      -43.62470000     -33.92820000     -72.07860000
C      -42.44800000     -33.56090000     -71.37410000
C      -44.47360000     -34.71700000     -71.24630000
H      -41.71490000     -32.89610000     -71.73400000
C      -43.94070000     -34.95120000     -70.02990000
C      -45.76740000     -35.38560000     -71.40740000
C      -46.01380000     -36.08510000     -70.23130000
S      -42.42110000     -34.07470000     -69.71420000
S      -44.85670000     -35.92430000     -68.96750000
H      -46.94300000     -36.70080000     -70.09780000
