40
Properties=species:S:1:pos:R:3 #=T CELL(abcABC):=T 1.889726e+02=T 90.00000=T Traj:=T positionsangstrom=T Step:=T 0=T Bead:=T pbc="F F F"
C      -47.05470000     -32.35840000     -69.45320000
C      -47.54800000     -31.91420000     -70.68620000
C      -46.78520000     -31.12530000     -71.58670000
C      -45.42980000     -30.68700000     -71.28350000
C      -44.99870000     -31.00890000     -70.00310000
C      -45.72470000     -31.89860000     -69.14600000
H      -47.56460000     -32.93830000     -68.69300000
H      -47.24560000     -30.98860000     -72.52810000
H      -43.95660000     -30.74480000     -69.82660000
H      -45.39520000     -32.13030000     -68.10940000
C      -44.57960000     -29.82870000     -72.24120000
H      -44.03730000     -29.03390000     -71.67860000
H      -45.12890000     -29.20160000     -72.97190000
C      -48.85570000     -32.44020000     -71.17960000
H      -49.66870000     -32.38900000     -70.53940000
H      -49.20710000     -31.91230000     -72.04720000
S      -43.34410000     -30.80760000     -73.19810000
S      -48.76590000     -34.26080000     -71.46860000
C      -44.40850000     -32.13390000     -73.96790000
H      -45.46780000     -31.93420000     -73.63080000
H      -44.40660000     -31.99400000     -75.00980000
C      -47.46170000     -34.35890000     -72.85080000
H      -46.77960000     -33.56240000     -72.75680000
H      -47.89650000     -34.32960000     -73.91200000
C      -46.66100000     -35.67730000     -72.72280000
H      -47.31880000     -36.53570000     -72.63960000
H      -46.04910000     -35.79970000     -73.64910000
C      -43.88010000     -33.62000000     -73.71620000
H      -42.89990000     -33.75250000     -74.30430000
H      -44.53310000     -34.38180000     -74.09580000
C      -43.68940000     -34.01510000     -72.19190000
C      -42.72930000     -33.38440000     -71.47180000
C      -44.51220000     -34.85760000     -71.36240000
H      -41.89040000     -32.79640000     -71.83130000
C      -43.86360000     -35.07730000     -70.05710000
C      -45.68920000     -35.70400000     -71.54920000
C      -45.94380000     -36.46910000     -70.43030000
S      -42.46060000     -34.02500000     -69.86990000
S      -44.72030000     -36.33660000     -69.23940000
H      -46.64720000     -37.26500000     -70.31780000
