40
Properties=species:S:1:pos:R:3 #=T CELL(abcABC):=T 1.889726e+02=T 90.00000=T Traj:=T positionsangstrom=T Step:=T 0=T Bead:=T pbc="F F F"
C      -46.76380000     -32.62330000     -69.31530000
C      -47.43550000     -32.01170000     -70.40320000
C      -46.68310000     -31.12620000     -71.16330000
C      -45.32510000     -30.82480000     -70.87990000
C      -44.68180000     -31.40670000     -69.81880000
C      -45.46150000     -32.25360000     -69.00610000
H      -47.28430000     -33.32520000     -68.66510000
H      -47.21500000     -30.51970000     -71.96470000
H      -43.62030000     -31.26650000     -69.65950000
H      -44.91700000     -32.65500000     -68.20700000
C      -44.57390000     -29.83930000     -71.71650000
H      -44.07080000     -29.08720000     -71.18120000
H      -45.15890000     -29.32410000     -72.51580000
C      -48.84640000     -32.45420000     -70.85820000
H      -49.49530000     -32.68560000     -70.00470000
H      -49.36240000     -31.61900000     -71.46240000
S      -43.21670000     -30.64940000     -72.74570000
S      -48.73100000     -34.02720000     -71.72000000
C      -44.11250000     -31.99820000     -73.70400000
H      -45.17960000     -31.99830000     -73.45000000
H      -44.01250000     -31.63370000     -74.76890000
C      -47.51590000     -33.67920000     -73.08500000
H      -46.91680000     -32.77310000     -72.85110000
H      -48.07320000     -33.39580000     -74.02160000
C      -46.60130000     -34.89500000     -73.31280000
H      -47.25860000     -35.78960000     -73.62370000
H      -45.87930000     -34.74520000     -74.14370000
C      -43.39400000     -33.31370000     -73.59360000
H      -42.37190000     -33.14200000     -73.81920000
H      -43.78410000     -34.05310000     -74.30500000
C      -43.43800000     -34.07390000     -72.26680000
C      -42.37370000     -33.98390000     -71.39930000
C      -44.54770000     -34.86700000     -71.68990000
H      -41.43100000     -33.56940000     -71.59670000
C      -44.18220000     -35.28210000     -70.40800000
C      -45.85080000     -35.28210000     -72.00790000
C      -46.44970000     -36.05180000     -70.98840000
S      -42.62110000     -34.83440000     -69.86260000
S      -45.39610000     -36.25340000     -69.59190000
H      -47.43280000     -36.52540000     -71.08390000
