40
Properties=species:S:1:pos:R:3 #=T CELL(abcABC):=T 1.889726e+02=T 90.00000=T Traj:=T positionsangstrom=T Step:=T 0=T Bead:=T pbc="F F F"
C      -45.64850000     -29.57740000     -69.62190000
C      -46.62430000     -30.55760000     -69.93670000
C      -46.89350000     -30.81810000     -71.26390000
C      -46.24730000     -30.18370000     -72.32620000
C      -45.24900000     -29.25900000     -72.01740000
C      -45.00850000     -28.94220000     -70.64810000
H      -45.37260000     -29.24800000     -68.63140000
H      -47.71290000     -31.38790000     -71.62730000
H      -44.85180000     -28.63560000     -72.86330000
H      -44.23370000     -28.15200000     -70.32220000
C      -46.69550000     -30.40430000     -73.75690000
H      -46.77150000     -29.39860000     -74.20500000
H      -47.63520000     -30.94630000     -73.79590000
C      -47.40960000     -31.34160000     -68.95900000
H      -47.22110000     -31.01540000     -67.91170000
H      -48.44710000     -31.34900000     -69.12920000
S      -45.53520000     -31.47090000     -74.82430000
S      -47.05620000     -33.16160000     -69.04970000
C      -45.76720000     -33.17900000     -74.21340000
H      -46.77680000     -33.64890000     -74.22770000
H      -45.14380000     -33.70480000     -74.88010000
C      -45.30780000     -33.25570000     -68.41530000
H      -45.26260000     -34.18350000     -67.82040000
H      -45.23120000     -32.47240000     -67.69760000
C      -44.28160000     -33.23230000     -69.53380000
H      -44.61550000     -32.49470000     -70.29830000
H      -43.41690000     -32.82770000     -69.08170000
C      -45.25640000     -33.48690000     -72.77900000
H      -46.09310000     -33.15770000     -72.06820000
H      -44.41940000     -32.83000000     -72.55960000
C      -44.91830000     -34.94180000     -72.52050000
C      -45.18770000     -35.98140000     -73.33820000
C      -44.32380000     -35.30820000     -71.24990000
H      -45.48530000     -36.06080000     -74.38050000
C      -44.03020000     -36.62530000     -71.21840000
C      -44.00770000     -34.62900000     -70.00160000
C      -43.50900000     -35.58670000     -69.09190000
S      -44.61410000     -37.46670000     -72.65350000
S      -43.51280000     -37.26150000     -69.71970000
H      -43.10180000     -35.33390000     -68.09650000
