40
Properties=species:S:1:pos:R:3 #=T CELL(abcABC):=T 1.889726e+02=T 90.00000=T Traj:=T positionsangstrom=T Step:=T 0=T Bead:=T pbc="F F F"
C      -46.72020000     -31.76480000     -69.80040000
C      -47.29450000     -31.83490000     -71.07470000
C      -46.54990000     -31.47010000     -72.19080000
C      -45.21990000     -31.10030000     -72.04100000
C      -44.66230000     -30.92260000     -70.74910000
C      -45.40820000     -31.34630000     -69.66800000
H      -47.31320000     -31.85940000     -68.87800000
H      -46.95170000     -31.59940000     -73.20600000
H      -43.65340000     -30.57620000     -70.70540000
H      -44.97780000     -31.29470000     -68.67030000
C      -44.52020000     -30.57990000     -73.33180000
H      -44.00720000     -29.70620000     -73.10640000
H      -45.25990000     -30.32990000     -74.15010000
C      -48.65740000     -32.41640000     -71.38660000
H      -49.44870000     -31.83000000     -70.80120000
H      -48.91970000     -32.14560000     -72.41030000
S      -43.31700000     -31.78380000     -74.02190000
S      -48.78670000     -34.19230000     -71.06060000
C      -44.35600000     -33.30500000     -74.19490000
H      -45.33820000     -33.05300000     -73.85770000
H      -44.47500000     -33.50180000     -75.25930000
C      -47.74820000     -34.92500000     -72.44680000
H      -47.14450000     -34.08440000     -72.91180000
H      -48.32490000     -35.26150000     -73.31680000
C      -46.82010000     -35.95170000     -71.88970000
H      -47.34260000     -36.78580000     -71.51710000
H      -46.21630000     -36.52300000     -72.68630000
C      -43.89170000     -34.61440000     -73.51790000
H      -43.02520000     -34.97470000     -74.07630000
H      -44.63540000     -35.38420000     -73.70240000
C      -43.64710000     -34.51080000     -72.01400000
C      -42.42890000     -33.95920000     -71.62550000
C      -44.59470000     -34.63840000     -70.95680000
H      -41.54140000     -33.79140000     -72.29460000
C      -44.06100000     -34.33350000     -69.69610000
C      -45.90770000     -35.28600000     -70.81600000
C      -46.36620000     -35.34700000     -69.49830000
S      -42.41430000     -33.73070000     -69.90790000
S      -45.13880000     -34.85940000     -68.34490000
H      -47.33730000     -35.64700000     -69.11320000
