40
Properties=species:S:1:pos:R:3 #=T CELL(abcABC):=T 1.889726e+02=T 90.00000=T Traj:=T positionsangstrom=T Step:=T 0=T Bead:=T pbc="F F F"
C      -46.77140000     -32.11690000     -69.68690000
C      -47.42010000     -31.92960000     -70.89830000
C      -46.69200000     -31.41870000     -72.05670000
C      -45.39890000     -31.00740000     -71.93460000
C      -44.72420000     -31.20900000     -70.67840000
C      -45.36910000     -31.75060000     -69.58830000
H      -47.24010000     -32.60350000     -68.80540000
H      -47.37280000     -31.18250000     -72.88910000
H      -43.72150000     -30.79600000     -70.56650000
H      -44.85220000     -31.74030000     -68.63700000
C      -44.74350000     -30.38730000     -73.15910000
H      -44.25130000     -29.37780000     -72.92230000
H      -45.51090000     -30.17580000     -73.87010000
C      -48.83360000     -32.39130000     -71.11450000
H      -49.58900000     -32.17140000     -70.39380000
H      -49.32540000     -32.09740000     -72.07940000
S      -43.46420000     -31.46620000     -73.91930000
S      -48.98070000     -34.28840000     -71.15110000
C      -44.48790000     -33.01460000     -74.10590000
H      -45.38710000     -32.88350000     -73.51940000
H      -44.84030000     -33.12210000     -75.11120000
C      -47.79770000     -34.58780000     -72.55110000
H      -47.31220000     -33.64060000     -72.83820000
H      -48.46060000     -34.84750000     -73.42170000
C      -46.67550000     -35.59900000     -72.22220000
H      -47.09800000     -36.64190000     -72.09250000
H      -46.04830000     -35.67280000     -73.10560000
C      -43.69190000     -34.27480000     -73.62950000
H      -42.76170000     -34.14970000     -74.15650000
H      -44.28510000     -35.18980000     -73.88800000
C      -43.46950000     -34.31270000     -72.07940000
C      -42.28960000     -33.90650000     -71.55090000
C      -44.41460000     -34.74390000     -71.08250000
H      -41.33990000     -33.46310000     -72.07190000
C      -43.92770000     -34.61050000     -69.80770000
C      -45.78280000     -35.28330000     -70.99350000
C      -46.15450000     -35.51190000     -69.68440000
S      -42.37150000     -33.79950000     -69.78290000
S      -44.90530000     -35.18280000     -68.53680000
H      -46.95050000     -36.14540000     -69.43910000
