40
Properties=species:S:1:pos:R:3 #=T CELL(abcABC):=T 1.889726e+02=T 90.00000=T Traj:=T positionsangstrom=T Step:=T 0=T Bead:=T pbc="F F F"
C      -46.67790000     -32.07180000     -69.78690000
C      -47.37380000     -31.87210000     -71.06060000
C      -46.66810000     -31.36560000     -72.15300000
C      -45.28490000     -30.97410000     -71.98010000
C      -44.69200000     -31.06680000     -70.75040000
C      -45.40100000     -31.63260000     -69.64030000
H      -47.16820000     -32.67910000     -69.07410000
H      -47.09780000     -31.25920000     -73.11260000
H      -43.65310000     -30.77890000     -70.63450000
H      -44.97900000     -31.89600000     -68.64300000
C      -44.48040000     -30.47970000     -73.13730000
H      -43.81770000     -29.61330000     -72.81450000
H      -45.09860000     -30.14680000     -73.95610000
C      -48.80470000     -32.36980000     -71.11810000
H      -49.34770000     -32.09490000     -70.19100000
H      -49.23380000     -31.89660000     -71.96000000
S      -43.38640000     -31.74630000     -73.86580000
S      -48.99220000     -34.25070000     -71.20030000
C      -44.46440000     -33.23010000     -74.15190000
H      -45.52370000     -32.99030000     -73.80860000
H      -44.40220000     -33.36160000     -75.24600000
C      -47.81720000     -34.77520000     -72.53650000
H      -47.32110000     -33.88040000     -72.88840000
H      -48.41500000     -35.21640000     -73.28620000
C      -46.76520000     -35.75430000     -72.10590000
H      -47.21340000     -36.66030000     -71.78760000
H      -46.14250000     -35.85130000     -73.01570000
C      -43.87000000     -34.46980000     -73.55530000
H      -42.91970000     -34.73160000     -74.04550000
H      -44.46770000     -35.38040000     -73.74780000
C      -43.57300000     -34.31130000     -72.06730000
C      -42.47300000     -33.66360000     -71.54640000
C      -44.48070000     -34.71990000     -71.04460000
H      -41.52830000     -33.36860000     -72.15240000
C      -43.95260000     -34.49360000     -69.75440000
C      -45.82950000     -35.33030000     -70.94790000
C      -46.15870000     -35.59600000     -69.62150000
S      -42.36950000     -33.75370000     -69.82960000
S      -44.95430000     -34.88720000     -68.44640000
H      -47.16730000     -35.80200000     -69.36970000
