40
Properties=species:S:1:pos:R:3 #=T CELL(abcABC):=T 1.889726e+02=T 90.00000=T Traj:=T positionsangstrom=T Step:=T 0=T Bead:=T pbc="F F F"
C      -46.68950000     -32.25550000     -69.29600000
C      -47.36920000     -32.16690000     -70.49490000
C      -46.78120000     -31.53100000     -71.56540000
C      -45.45430000     -30.99710000     -71.39450000
C      -44.70810000     -31.29060000     -70.28470000
C      -45.36080000     -31.89520000     -69.18490000
H      -47.08110000     -32.85150000     -68.53400000
H      -47.48600000     -31.27490000     -72.39940000
H      -43.66690000     -30.98050000     -70.27930000
H      -44.82700000     -32.26630000     -68.27540000
C      -44.75840000     -30.15180000     -72.49910000
H      -44.09240000     -29.46990000     -72.01690000
H      -45.49540000     -29.62720000     -73.09680000
C      -48.79560000     -32.80830000     -70.75000000
H      -49.34780000     -33.12960000     -69.83870000
H      -49.26520000     -31.91220000     -71.26650000
S      -43.56080000     -31.03590000     -73.49760000
S      -48.81090000     -34.41510000     -71.58210000
C      -44.45220000     -32.54460000     -74.05870000
H      -45.39730000     -32.53520000     -73.46260000
H      -44.74260000     -32.48180000     -75.07370000
C      -47.52850000     -34.38150000     -72.90270000
H      -47.14260000     -33.40610000     -72.98210000
H      -47.93250000     -34.48560000     -73.93640000
C      -46.55070000     -35.53560000     -72.68760000
H      -47.13740000     -36.47100000     -72.44890000
H      -46.03060000     -35.65800000     -73.61670000
C      -43.77050000     -33.84910000     -73.76330000
H      -42.86100000     -33.98930000     -74.42150000
H      -44.47860000     -34.62580000     -74.11320000
C      -43.42930000     -34.09820000     -72.21350000
C      -42.28510000     -33.67740000     -71.55400000
C      -44.43100000     -34.70450000     -71.33310000
H      -41.32970000     -33.34720000     -72.01480000
C      -43.93270000     -34.76250000     -70.01720000
C      -45.70420000     -35.36270000     -71.46890000
C      -46.28020000     -35.71990000     -70.28420000
S      -42.35750000     -33.98680000     -69.85040000
S      -45.15450000     -35.45710000     -68.92310000
H      -47.20010000     -36.21890000     -70.06170000
