40
Properties=species:S:1:pos:R:3 #=T CELL(abcABC):=T 1.889726e+02=T 90.00000=T Traj:=T positionsangstrom=T Step:=T 0=T Bead:=T pbc="F F F"
C      -46.79910000     -32.15940000     -69.56790000
C      -47.48910000     -31.93920000     -70.76050000
C      -46.93820000     -31.16190000     -71.84150000
C      -45.56190000     -30.92030000     -71.83480000
C      -44.88120000     -31.05030000     -70.61620000
C      -45.44890000     -31.69990000     -69.53620000
H      -47.44990000     -32.53690000     -68.72890000
H      -47.49620000     -31.08800000     -72.82760000
H      -43.81350000     -30.84420000     -70.49120000
H      -44.78390000     -31.85800000     -68.67480000
C      -44.82730000     -30.22910000     -73.01530000
H      -44.22760000     -29.47090000     -72.58730000
H      -45.46270000     -29.71510000     -73.72510000
C      -48.89330000     -32.45900000     -70.92780000
H      -49.51910000     -32.15800000     -70.09580000
H      -49.41610000     -31.94540000     -71.79430000
S      -43.56180000     -31.35170000     -73.78410000
S      -48.83580000     -34.34210000     -71.12210000
C      -44.43910000     -32.96760000     -74.23820000
H      -45.46870000     -32.84620000     -73.85110000
H      -44.39600000     -33.09740000     -75.36410000
C      -47.71240000     -34.54990000     -72.57260000
H      -47.28590000     -33.64340000     -72.91870000
H      -48.31170000     -34.98950000     -73.37730000
C      -46.55900000     -35.68170000     -72.35010000
H      -47.02510000     -36.66800000     -72.09900000
H      -46.07910000     -35.88570000     -73.27800000
C      -43.68280000     -34.12470000     -73.62330000
H      -42.72480000     -34.32410000     -74.05870000
H      -44.25720000     -34.99760000     -73.90300000
C      -43.47340000     -34.14540000     -72.10570000
C      -42.29520000     -33.74140000     -71.62710000
C      -44.36060000     -34.73090000     -71.14120000
H      -41.50560000     -33.16610000     -72.18950000
C      -43.86760000     -34.66040000     -69.86870000
C      -45.66910000     -35.37470000     -71.19420000
C      -46.17480000     -35.64650000     -69.96330000
S      -42.16630000     -34.11130000     -69.84400000
S      -44.99650000     -35.25240000     -68.65130000
H      -47.14530000     -36.15920000     -69.95100000
