40
Properties=species:S:1:pos:R:3 #=T CELL(abcABC):=T 1.889726e+02=T 90.00000=T Traj:=T positionsangstrom=T Step:=T 0=T Bead:=T pbc="F F F"
C      -45.55040000     -30.65030000     -68.46880000
C      -44.26800000     -31.26340000     -68.66440000
C      -43.59750000     -31.00670000     -69.87290000
C      -44.10510000     -30.06290000     -70.78830000
C      -45.30390000     -29.39550000     -70.50690000
C      -45.99210000     -29.66450000     -69.33620000
H      -46.00250000     -30.92580000     -67.52490000
H      -42.66320000     -31.46360000     -70.01720000
H      -45.46060000     -28.54000000     -71.16490000
H      -46.93780000     -29.09760000     -69.19570000
C      -43.34740000     -29.72060000     -72.05390000
H      -42.24490000     -30.11310000     -71.98160000
H      -43.28630000     -28.63930000     -72.21050000
C      -43.77550000     -32.23270000     -67.61730000
H      -42.71670000     -32.42080000     -67.86130000
H      -43.89580000     -31.66850000     -66.66280000
S      -44.09920000     -30.51930000     -73.52750000
S      -44.80490000     -33.71950000     -67.51890000
C      -45.01920000     -32.05880000     -73.01950000
H      -45.63430000     -31.84940000     -72.12580000
H      -45.79300000     -32.14980000     -73.80880000
C      -44.73570000     -34.61190000     -69.14030000
H      -44.72880000     -35.73590000     -69.00260000
H      -43.83580000     -34.21620000     -69.72360000
C      -45.93570000     -34.13360000     -70.03160000
H      -46.75970000     -33.86720000     -69.33400000
H      -45.73490000     -33.17750000     -70.61920000
C      -44.24900000     -33.39970000     -72.87930000
H      -44.02740000     -33.51440000     -71.77220000
H      -43.30690000     -33.25310000     -73.39840000
C      -45.01190000     -34.62180000     -73.23740000
C      -45.02180000     -35.16660000     -74.49950000
C      -45.92340000     -35.32680000     -72.42100000
H      -44.56820000     -34.69960000     -75.45560000
C      -46.56530000     -36.37250000     -73.08710000
C      -46.33890000     -35.20590000     -71.01870000
C      -47.33770000     -36.15180000     -70.71260000
S      -46.13360000     -36.41770000     -74.70970000
S      -47.80100000     -37.15570000     -72.06610000
H      -47.82250000     -36.26660000     -69.77110000
