40
Properties=species:S:1:pos:R:3 #=T CELL(abcABC):=T 1.889726e+02=T 90.00000=T Traj:=T positionsangstrom=T Step:=T 0=T Bead:=T pbc="F F F"
C      -42.21450000     -30.70000000     -71.28930000
C      -43.53460000     -30.37170000     -70.93620000
C      -44.48420000     -30.59120000     -71.93550000
C      -44.09310000     -30.93150000     -73.27280000
C      -42.76190000     -31.22630000     -73.58320000
C      -41.81400000     -31.13250000     -72.51870000
H      -41.49040000     -30.59410000     -70.54300000
H      -45.53550000     -30.50040000     -71.66080000
H      -42.50410000     -31.68790000     -74.49390000
H      -40.81020000     -31.45690000     -72.74120000
C      -45.22220000     -31.06120000     -74.21720000
H      -45.22720000     -30.31390000     -74.98210000
H      -46.13240000     -30.95240000     -73.62450000
C      -43.87830000     -29.80000000     -69.54290000
H      -42.88010000     -29.60980000     -69.04150000
H      -44.53940000     -28.94080000     -69.48980000
S      -45.21720000     -32.60640000     -75.22850000
S      -44.96830000     -30.99870000     -68.59590000
C      -46.20980000     -33.66310000     -74.08920000
H      -46.96510000     -32.98440000     -73.60680000
H      -46.80370000     -34.34930000     -74.72500000
C      -44.14400000     -32.63890000     -68.70020000
H      -44.35270000     -33.11390000     -67.70890000
H      -43.11850000     -32.38000000     -68.74430000
C      -44.67060000     -33.42070000     -69.90940000
H      -45.09420000     -32.76880000     -70.66480000
H      -43.78850000     -33.84040000     -70.50480000
C      -45.34020000     -34.36930000     -73.00770000
H      -44.81930000     -33.57670000     -72.43850000
H      -44.54080000     -34.93360000     -73.57370000
C      -46.17170000     -35.28580000     -72.13800000
C      -46.98900000     -36.29260000     -72.67660000
C      -46.28860000     -35.26360000     -70.71010000
H      -47.17230000     -36.52760000     -73.67130000
C      -47.07680000     -36.29410000     -70.21320000
C      -45.67440000     -34.47810000     -69.65810000
C      -45.94980000     -35.03230000     -68.41900000
S      -47.72320000     -37.29780000     -71.42300000
S      -47.14040000     -36.29330000     -68.46380000
H      -45.58870000     -34.70730000     -67.45840000
