40
Properties=species:S:1:pos:R:3 #=T CELL(abcABC):=T 1.889726e+02=T 90.00000=T Traj:=T positionsangstrom=T Step:=T 0=T Bead:=T pbc="F F F"
C      -46.63350000     -31.32480000     -70.39250000
C      -47.30770000     -31.51090000     -71.65010000
C      -46.65850000     -31.36780000     -72.86960000
C      -45.27610000     -31.11700000     -72.82670000
C      -44.57130000     -31.05330000     -71.65390000
C      -45.25590000     -31.04930000     -70.41970000
H      -47.09930000     -31.52920000     -69.48450000
H      -47.28260000     -31.46040000     -73.68870000
H      -43.52520000     -30.95720000     -71.73280000
H      -44.68160000     -31.18870000     -69.51050000
C      -44.41820000     -31.18470000     -74.15800000
H      -43.75970000     -30.35130000     -74.29970000
H      -45.11250000     -31.31330000     -75.05750000
C      -48.75630000     -32.05480000     -71.71220000
H      -49.47360000     -31.56270000     -70.96470000
H      -49.29450000     -31.97260000     -72.72790000
S      -43.32080000     -32.68110000     -74.07070000
S      -48.71880000     -33.81260000     -71.11590000
C      -44.61870000     -33.99540000     -73.93040000
H      -45.49820000     -33.53490000     -73.53510000
H      -44.92470000     -34.32210000     -74.86670000
C      -47.55830000     -34.76510000     -72.22430000
H      -46.81850000     -34.12180000     -72.69680000
H      -48.05150000     -35.20090000     -73.04810000
C      -46.92560000     -35.85550000     -71.31460000
H      -47.71470000     -36.41220000     -70.78200000
H      -46.35750000     -36.71980000     -71.79420000
C      -43.92790000     -35.24760000     -73.09470000
H      -43.04100000     -35.66040000     -73.61500000
H      -44.74790000     -36.04740000     -73.14790000
C      -43.68210000     -34.80270000     -71.61260000
C      -42.43180000     -34.28840000     -71.27070000
C      -44.65240000     -34.76670000     -70.53750000
H      -41.59120000     -34.26570000     -71.93320000
C      -44.05970000     -34.23280000     -69.41550000
C      -46.00970000     -35.20310000     -70.27790000
C      -46.37530000     -34.92110000     -69.01840000
S      -42.41260000     -33.60280000     -69.59620000
S      -45.09320000     -34.19980000     -67.97650000
H      -47.32030000     -35.13690000     -68.46100000
