40
Properties=species:S:1:pos:R:3 #=T CELL(abcABC):=T 1.889726e+02=T 90.00000=T Traj:=T positionsangstrom=T Step:=T 0=T Bead:=T pbc="F F F"
C      -41.86250000     -31.51030000     -70.87750000
C      -43.06130000     -30.79510000     -70.73590000
C      -43.92570000     -30.63140000     -71.84790000
C      -43.55020000     -31.17820000     -73.10230000
C      -42.28950000     -31.83150000     -73.23910000
C      -41.51760000     -32.03280000     -72.13720000
H      -41.21330000     -31.58120000     -70.02230000
H      -44.83690000     -30.16440000     -71.84680000
H      -41.91870000     -32.21090000     -74.20420000
H      -40.62140000     -32.65160000     -72.25390000
C      -44.34840000     -30.89980000     -74.37350000
H      -43.71220000     -30.77940000     -75.25750000
H      -45.02940000     -30.03420000     -74.26210000
C      -43.45760000     -30.17170000     -69.46010000
H      -42.62490000     -30.04560000     -68.74110000
H      -43.78390000     -29.15640000     -69.70980000
S      -45.54400000     -32.30460000     -74.90440000
S      -44.76020000     -31.26910000     -68.56230000
C      -46.04480000     -33.23400000     -73.34910000
H      -45.76880000     -32.73410000     -72.46010000
H      -47.12550000     -33.43380000     -73.42760000
C      -44.03800000     -32.89230000     -68.86860000
H      -44.18230000     -33.56930000     -67.96650000
H      -42.97570000     -32.82860000     -69.01630000
C      -44.46510000     -33.68880000     -70.16160000
H      -44.53520000     -32.99500000     -70.98540000
H      -43.79390000     -34.48980000     -70.36060000
C      -45.35610000     -34.67310000     -73.26690000
H      -44.30080000     -34.44690000     -72.97680000
H      -45.30530000     -35.07040000     -74.25810000
C      -46.07450000     -35.54610000     -72.31820000
C      -46.98040000     -36.54190000     -72.77510000
C      -46.33440000     -35.27060000     -70.88010000
H      -47.08630000     -36.99270000     -73.68060000
C      -47.43720000     -35.97800000     -70.38070000
C      -45.85060000     -34.34780000     -69.93090000
C      -46.62310000     -34.29270000     -68.76730000
S      -48.22380000     -37.00160000     -71.57360000
S      -47.94910000     -35.40050000     -68.80740000
H      -46.45380000     -33.57320000     -68.01390000
