40
Properties=species:S:1:pos:R:3 #=T CELL(abcABC):=T 1.889726e+02=T 90.00000=T Traj:=T positionsangstrom=T Step:=T 0=T Bead:=T pbc="F F F"
C      -42.28740000     -31.04890000     -71.16410000
C      -43.50400000     -30.44820000     -70.93580000
C      -44.44280000     -30.47470000     -71.97530000
C      -44.04990000     -30.89570000     -73.27480000
C      -42.76230000     -31.37580000     -73.52170000
C      -41.89610000     -31.46680000     -72.41980000
H      -41.63140000     -31.17430000     -70.37520000
H      -45.36390000     -29.89560000     -71.79410000
H      -42.52380000     -31.57880000     -74.55190000
H      -40.86560000     -31.82440000     -72.56720000
C      -44.95610000     -30.86710000     -74.50520000
H      -44.56840000     -30.30100000     -75.37460000
H      -45.98070000     -30.44860000     -74.23250000
C      -43.84930000     -29.92080000     -69.54140000
H      -42.87590000     -29.75060000     -69.07940000
H      -44.33800000     -28.95990000     -69.56930000
S      -45.27470000     -32.58140000     -75.23630000
S      -44.84800000     -31.02430000     -68.45060000
C      -46.17410000     -33.56560000     -73.98850000
H      -46.81830000     -32.99500000     -73.35960000
H      -46.70810000     -34.22790000     -74.59770000
C      -44.04200000     -32.66500000     -68.63640000
H      -44.22490000     -33.16810000     -67.66770000
H      -43.00150000     -32.57290000     -68.91790000
C      -44.51930000     -33.54620000     -69.81630000
H      -44.74010000     -32.92350000     -70.68890000
H      -43.57840000     -34.05740000     -70.04660000
C      -45.21310000     -34.42860000     -73.09660000
H      -44.59830000     -33.72990000     -72.46020000
H      -44.60040000     -34.98480000     -73.69460000
C      -46.02640000     -35.35870000     -72.20370000
C      -46.74660000     -36.39810000     -72.68430000
C      -46.23690000     -35.29260000     -70.70060000
H      -46.79350000     -36.76660000     -73.71850000
C      -47.16490000     -36.21180000     -70.23140000
C      -45.71380000     -34.47640000     -69.66520000
C      -46.20370000     -34.81100000     -68.43220000
S      -47.87500000     -37.20930000     -71.52650000
S      -47.39140000     -36.10700000     -68.48980000
H      -46.02080000     -34.27240000     -67.51760000
