40
Properties=species:S:1:pos:R:3 #=T CELL(abcABC):=T 1.889726e+02=T 90.00000=T Traj:=T positionsangstrom=T Step:=T 0=T Bead:=T pbc="F F F"
C      -46.50960000     -31.63430000     -69.99620000
C      -47.13420000     -31.75720000     -71.28470000
C      -46.50360000     -31.43050000     -72.42900000
C      -45.18330000     -30.92560000     -72.33540000
C      -44.55810000     -30.80080000     -71.11380000
C      -45.21290000     -31.17790000     -69.92100000
H      -47.08710000     -31.85170000     -69.09820000
H      -46.88800000     -31.64800000     -73.40920000
H      -43.52460000     -30.47760000     -71.04300000
H      -44.66380000     -31.01760000     -69.00190000
C      -44.45130000     -30.75460000     -73.65590000
H      -43.69310000     -29.93700000     -73.66460000
H      -45.17030000     -30.63060000     -74.37810000
C      -48.66710000     -32.18300000     -71.41530000
H      -49.26130000     -31.66860000     -70.69140000
H      -48.93900000     -31.94940000     -72.44820000
S      -43.35600000     -32.24810000     -74.07420000
S      -48.87700000     -34.01990000     -71.08000000
C      -44.48680000     -33.68330000     -74.08650000
H      -45.42820000     -33.39900000     -73.57810000
H      -44.66120000     -33.90300000     -75.10740000
C      -47.78180000     -34.77390000     -72.31270000
H      -47.28030000     -33.93800000     -72.71590000
H      -48.31460000     -35.28150000     -73.12000000
C      -46.85430000     -35.87050000     -71.74330000
H      -47.50890000     -36.70330000     -71.33310000
H      -46.15450000     -36.24970000     -72.47580000
C      -43.92150000     -34.96080000     -73.38000000
H      -43.07770000     -35.42830000     -73.91510000
H      -44.68040000     -35.74430000     -73.33160000
C      -43.67600000     -34.61040000     -71.91900000
C      -42.42540000     -34.15690000     -71.44660000
C      -44.56630000     -34.78710000     -70.79650000
H      -41.53530000     -34.08360000     -71.93340000
C      -44.04260000     -34.30780000     -69.64720000
C      -45.91520000     -35.33550000     -70.64150000
C      -46.32900000     -35.33880000     -69.33440000
S      -42.53390000     -33.57900000     -69.77120000
S      -45.15030000     -34.61440000     -68.21680000
H      -47.32440000     -35.59650000     -68.88230000
