40
Properties=species:S:1:pos:R:3 #=T CELL(abcABC):=T 1.889726e+02=T 90.00000=T Traj:=T positionsangstrom=T Step:=T 0=T Bead:=T pbc="F F F"
C      -42.15110000     -30.42220000     -71.28930000
C      -43.45070000     -30.20950000     -70.83820000
C      -44.49020000     -30.41390000     -71.81120000
C      -44.23300000     -30.86190000     -73.11860000
C      -42.87780000     -31.08400000     -73.45360000
C      -41.87940000     -30.86670000     -72.57390000
H      -41.28020000     -30.11830000     -70.63500000
H      -45.55280000     -30.33120000     -71.47650000
H      -42.62580000     -31.37230000     -74.45300000
H      -40.87310000     -30.87690000     -72.95800000
C      -45.25250000     -31.06470000     -74.14880000
H      -45.16690000     -30.27360000     -74.95230000
H      -46.23570000     -30.88920000     -73.74630000
C      -43.83410000     -29.77350000     -69.42000000
H      -42.95060000     -29.73750000     -68.77060000
H      -44.28540000     -28.79250000     -69.31810000
S      -45.13090000     -32.63560000     -75.17700000
S      -45.19810000     -30.84060000     -68.77710000
C      -46.25260000     -33.91000000     -74.31410000
H      -47.23460000     -33.47370000     -74.19120000
H      -46.39430000     -34.79890000     -74.96050000
C      -44.25160000     -32.49660000     -68.73730000
H      -44.23170000     -33.16340000     -67.77070000
H      -43.13520000     -32.19790000     -68.58090000
C      -44.60150000     -33.44480000     -69.86910000
H      -44.96780000     -32.74980000     -70.64030000
H      -43.76310000     -34.09110000     -70.21530000
C      -45.55980000     -34.26740000     -73.00640000
H      -45.44190000     -33.41950000     -72.38920000
H      -44.53750000     -34.67700000     -73.18560000
C      -46.20470000     -35.35780000     -72.17790000
C      -47.14450000     -36.28870000     -72.71340000
C      -46.13390000     -35.39460000     -70.75880000
H      -47.39730000     -36.51600000     -73.70050000
C      -46.88240000     -36.44920000     -70.26290000
C      -45.54420000     -34.58860000     -69.63950000
C      -45.82480000     -35.18440000     -68.39190000
S      -47.78730000     -37.31700000     -71.39970000
S      -46.91030000     -36.60640000     -68.47620000
H      -45.39510000     -34.93790000     -67.43370000
