40
Properties=species:S:1:pos:R:3 #=T CELL(abcABC):=T 1.889726e+02=T 90.00000=T Traj:=T positionsangstrom=T Step:=T 0=T Bead:=T pbc="F F F"
C      -46.78010000     -31.63730000     -70.48640000
C      -47.41820000     -32.18470000     -71.60970000
C      -46.84970000     -32.10000000     -72.88200000
C      -45.66800000     -31.33360000     -73.08140000
C      -45.10470000     -30.67720000     -71.98290000
C      -45.68850000     -30.78020000     -70.69820000
H      -47.24850000     -31.82420000     -69.50070000
H      -47.43190000     -32.63010000     -73.64770000
H      -44.32660000     -29.91160000     -72.11540000
H      -45.09160000     -30.18750000     -69.94940000
C      -44.92770000     -31.52070000     -74.36680000
H      -44.53660000     -30.55770000     -74.66310000
H      -45.55510000     -31.88850000     -75.22860000
C      -48.75760000     -32.88770000     -71.43650000
H      -49.41250000     -32.33930000     -70.71690000
H      -49.27120000     -33.00360000     -72.41460000
S      -43.45350000     -32.63400000     -74.32580000
S      -48.71390000     -34.63070000     -70.68710000
C      -44.37000000     -34.24230000     -73.96680000
H      -45.29070000     -33.86450000     -73.53870000
H      -44.64220000     -34.81080000     -74.84120000
C      -47.53420000     -35.53470000     -71.76250000
H      -47.00910000     -34.75040000     -72.37440000
H      -47.99930000     -36.22900000     -72.46040000
C      -46.24930000     -36.19660000     -71.03160000
H      -46.54460000     -37.02250000     -70.42500000
H      -45.58650000     -36.42250000     -71.81540000
C      -43.63250000     -35.15640000     -72.94820000
H      -42.66570000     -35.27550000     -73.32810000
H      -44.19130000     -36.08210000     -72.79820000
C      -43.48860000     -34.32880000     -71.65050000
C      -42.40810000     -33.46970000     -71.37790000
C      -44.40150000     -34.37110000     -70.53200000
H      -41.63170000     -33.08690000     -72.12560000
C      -44.04610000     -33.47200000     -69.48710000
C      -45.58680000     -35.09540000     -70.14700000
C      -46.07680000     -34.90500000     -68.91770000
S      -42.47500000     -32.73150000     -69.75010000
S      -44.98380000     -33.75340000     -68.03330000
H      -46.84180000     -35.52700000     -68.39400000
