40
Properties=species:S:1:pos:R:3 #=T CELL(abcABC):=T 1.889726e+02=T 90.00000=T Traj:=T positionsangstrom=T Step:=T 0=T Bead:=T pbc="F F F"
C      -41.46130000     -31.51780000     -71.02480000
C      -42.75440000     -30.90950000     -70.79090000
C      -43.64430000     -30.58390000     -71.84120000
C      -43.36450000     -31.04770000     -73.14220000
C      -42.02980000     -31.52800000     -73.40570000
C      -41.13540000     -31.77290000     -72.36780000
H      -40.77040000     -31.64350000     -70.24890000
H      -44.55510000     -30.09440000     -71.58010000
H      -41.75130000     -31.61990000     -74.41700000
H      -40.08350000     -32.05700000     -72.52880000
C      -44.41400000     -31.02400000     -74.22050000
H      -44.16260000     -30.38760000     -75.05360000
H      -45.33770000     -30.75740000     -73.74220000
C      -43.12460000     -30.30240000     -69.39630000
H      -42.19170000     -30.07340000     -68.78200000
H      -43.61460000     -29.33580000     -69.37010000
S      -44.66630000     -32.71800000     -74.94400000
S      -44.33580000     -31.25930000     -68.39420000
C      -46.03250000     -33.37500000     -73.88290000
H      -46.14990000     -32.52480000     -73.23950000
H      -46.89060000     -33.58740000     -74.53100000
C      -44.15780000     -33.02660000     -68.87410000
H      -44.37640000     -33.56560000     -67.99570000
H      -43.12350000     -33.18190000     -69.18730000
C      -44.94270000     -33.43350000     -70.09660000
H      -45.14700000     -32.58320000     -70.71920000
H      -44.31670000     -34.20030000     -70.62100000
C      -45.61460000     -34.64110000     -73.14200000
H      -44.74230000     -34.55630000     -72.47090000
H      -45.25930000     -35.35820000     -73.84880000
C      -46.76400000     -35.30040000     -72.33320000
C      -47.75280000     -36.10770000     -72.82010000
C      -46.88460000     -35.09740000     -70.90220000
H      -47.89090000     -36.45220000     -73.85900000
C      -47.90760000     -35.86960000     -70.37560000
C      -46.19340000     -34.30530000     -69.88150000
C      -46.74600000     -34.47150000     -68.66110000
S      -48.79700000     -36.73800000     -71.58240000
S      -47.98700000     -35.73520000     -68.65580000
H      -46.53870000     -33.99480000     -67.70300000
