40
Properties=species:S:1:pos:R:3 #=T CELL(abcABC):=T 1.889726e+02=T 90.00000=T Traj:=T positionsangstrom=T Step:=T 0=T Bead:=T pbc="F F F"
C      -41.16550000     -31.25210000     -70.97900000
C      -42.41290000     -30.71960000     -70.68450000
C      -43.42870000     -30.73230000     -71.70080000
C      -43.09550000     -31.28370000     -72.97110000
C      -41.78170000     -31.79910000     -73.28520000
C      -40.83370000     -31.79480000     -72.25010000
H      -40.54130000     -31.27510000     -70.01490000
H      -44.51950000     -30.58630000     -71.44640000
H      -41.45480000     -32.20960000     -74.30010000
H      -39.83290000     -32.25510000     -72.34090000
C      -44.28720000     -31.27430000     -73.97470000
H      -44.09380000     -30.51690000     -74.77630000
H      -45.25940000     -31.07220000     -73.51940000
C      -42.90730000     -30.35720000     -69.28930000
H      -42.14410000     -30.56860000     -68.47460000
H      -43.04640000     -29.18060000     -69.33370000
S      -44.68520000     -32.77510000     -74.90210000
S      -44.47870000     -31.16210000     -68.81640000
C      -46.06570000     -33.46830000     -73.85430000
H      -46.20130000     -32.70340000     -73.06350000
H      -46.91810000     -33.51430000     -74.53240000
C      -44.11090000     -32.99780000     -69.00790000
H      -44.30210000     -33.49180000     -68.00370000
H      -43.07690000     -33.11530000     -69.11310000
C      -44.81670000     -33.68860000     -70.22010000
H      -45.15050000     -32.91040000     -70.95070000
H      -44.09080000     -34.21930000     -70.81840000
C      -45.77430000     -34.84600000     -73.25020000
H      -44.97150000     -34.74590000     -72.57590000
H      -45.49550000     -35.58140000     -74.00910000
C      -46.92640000     -35.32220000     -72.37710000
C      -48.16560000     -35.84170000     -72.82100000
C      -46.89510000     -35.23460000     -70.94100000
H      -48.42570000     -35.91850000     -73.83560000
C      -48.00480000     -35.75480000     -70.33500000
C      -46.03800000     -34.56950000     -69.93470000
C      -46.57180000     -34.65740000     -68.65590000
S      -49.24570000     -36.30720000     -71.50950000
S      -48.02950000     -35.66080000     -68.61550000
H      -46.17690000     -34.20460000     -67.75450000
