40
Properties=species:S:1:pos:R:3 #=T CELL(abcABC):=T 1.889726e+02=T 90.00000=T Traj:=T positionsangstrom=T Step:=T 0=T Bead:=T pbc="F F F"
C      -41.18710000     -31.78250000     -70.99630000
C      -42.50610000     -31.15000000     -70.82860000
C      -43.34180000     -30.88220000     -71.96240000
C      -42.90490000     -31.32120000     -73.22080000
C      -41.60660000     -31.88190000     -73.39910000
C      -40.77560000     -32.13970000     -72.29860000
H      -40.60580000     -31.96280000     -70.13940000
H      -44.32860000     -30.44370000     -71.86150000
H      -41.29950000     -32.11440000     -74.35030000
H      -39.78340000     -32.60870000     -72.40840000
C      -43.79590000     -31.15710000     -74.43590000
H      -43.21530000     -30.92450000     -75.33370000
H      -44.45040000     -30.23250000     -74.40540000
C      -43.06200000     -30.70950000     -69.50770000
H      -42.22900000     -30.60080000     -68.72820000
H      -43.42790000     -29.69820000     -69.74220000
S      -44.71640000     -32.78140000     -74.90650000
S      -44.49280000     -31.64440000     -68.90470000
C      -45.92420000     -33.09740000     -73.48500000
H      -45.50810000     -32.63800000     -72.60980000
H      -46.86010000     -32.52580000     -73.56090000
C      -43.93220000     -33.42790000     -69.09890000
H      -43.98910000     -33.86670000     -68.14810000
H      -42.83770000     -33.36750000     -69.31310000
C      -44.75320000     -34.13870000     -70.18160000
H      -44.68620000     -33.47050000     -71.05270000
H      -44.30830000     -35.11010000     -70.41140000
C      -45.91940000     -34.65400000     -73.24940000
H      -44.91850000     -34.94420000     -72.86820000
H      -46.08360000     -35.27110000     -74.12460000
C      -46.95830000     -35.03190000     -72.22060000
C      -48.13980000     -35.66070000     -72.69900000
C      -47.06820000     -34.89420000     -70.78550000
H      -48.37750000     -35.81710000     -73.76540000
C      -48.25590000     -35.38290000     -70.19890000
C      -46.12520000     -34.40620000     -69.79660000
C      -46.53560000     -34.47610000     -68.49080000
S      -49.29720000     -36.10990000     -71.42520000
S      -48.20120000     -35.09490000     -68.43800000
H      -46.08400000     -34.06010000     -67.56710000
