40
Properties=species:S:1:pos:R:3 #=T CELL(abcABC):=T 1.889726e+02=T 90.00000=T Traj:=T positionsangstrom=T Step:=T 0=T Bead:=T pbc="F F F"
C      -47.03470000     -31.49820000     -70.46130000
C      -47.55940000     -32.28680000     -71.49130000
C      -46.94070000     -32.21440000     -72.77440000
C      -45.71720000     -31.65020000     -72.94780000
C      -45.11120000     -30.96620000     -71.86520000
C      -45.79390000     -30.88920000     -70.64220000
H      -47.46180000     -31.60110000     -69.46840000
H      -47.42640000     -32.70920000     -73.61090000
H      -44.11000000     -30.56300000     -72.00370000
H      -45.39120000     -30.30750000     -69.75140000
C      -45.08400000     -31.44810000     -74.28970000
H      -44.61880000     -30.48990000     -74.44880000
H      -45.75460000     -31.59780000     -75.13340000
C      -48.92730000     -32.99370000     -71.26710000
H      -49.56310000     -32.38950000     -70.65340000
H      -49.47660000     -33.15610000     -72.22940000
S      -43.71050000     -32.77500000     -74.51030000
S      -48.68980000     -34.71420000     -70.63120000
C      -44.28090000     -34.38100000     -73.88470000
H      -45.31460000     -34.22370000     -73.42110000
H      -44.46920000     -35.03430000     -74.75580000
C      -47.40790000     -35.40830000     -71.83870000
H      -47.30000000     -34.67150000     -72.61630000
H      -47.83280000     -36.30330000     -72.31970000
C      -46.17570000     -36.02180000     -71.19890000
H      -46.41290000     -37.02570000     -70.63320000
H      -45.59720000     -36.34370000     -72.08440000
C      -43.28660000     -35.07520000     -72.89160000
H      -42.29410000     -34.95390000     -73.34780000
H      -43.46240000     -36.16010000     -72.92630000
C      -43.26850000     -34.29690000     -71.61740000
C      -42.26160000     -33.34180000     -71.31940000
C      -44.21430000     -34.39330000     -70.52420000
H      -41.33440000     -33.22740000     -71.88380000
C      -43.87520000     -33.53460000     -69.44450000
C      -45.45860000     -35.04240000     -70.25830000
C      -46.01310000     -34.72790000     -69.06140000
S      -42.40740000     -32.55430000     -69.75140000
S      -45.05480000     -33.58250000     -68.13740000
H      -46.82340000     -35.29560000     -68.59610000
