40
Properties=species:S:1:pos:R:3 #=T CELL(abcABC):=T 1.889726e+02=T 90.00000=T Traj:=T positionsangstrom=T Step:=T 0=T Bead:=T pbc="F F F"
C      -41.17010000     -31.26340000     -70.90950000
C      -42.45750000     -30.82860000     -70.72470000
C      -43.40550000     -30.82320000     -71.81120000
C      -43.01360000     -31.37400000     -73.00600000
C      -41.76950000     -31.92320000     -73.23380000
C      -40.86470000     -31.84770000     -72.20350000
H      -40.37320000     -31.04360000     -70.13870000
H      -44.35380000     -30.29550000     -71.70800000
H      -41.61180000     -32.36740000     -74.22570000
H      -39.91420000     -32.25740000     -72.48250000
C      -43.98230000     -31.26400000     -74.16630000
H      -43.43170000     -30.72070000     -74.93140000
H      -44.84590000     -30.68330000     -73.85130000
C      -42.88530000     -30.36110000     -69.39760000
H      -42.27080000     -30.65300000     -68.60890000
H      -43.12260000     -29.32640000     -69.22170000
S      -44.73100000     -32.79220000     -74.88860000
S      -44.38050000     -31.43140000     -68.94170000
C      -46.11130000     -33.22470000     -73.80920000
H      -46.30350000     -32.57600000     -72.91610000
H      -46.97180000     -33.30070000     -74.49280000
C      -43.83150000     -33.12180000     -69.11330000
H      -43.75120000     -33.62810000     -68.16680000
H      -42.81370000     -33.02380000     -69.59310000
C      -44.68150000     -33.97020000     -70.07190000
H      -44.77600000     -33.45040000     -70.98570000
H      -44.02310000     -34.87000000     -70.34060000
C      -45.89520000     -34.73440000     -73.27770000
H      -44.94870000     -34.79580000     -72.82760000
H      -45.88390000     -35.38290000     -74.22820000
C      -46.97350000     -35.16180000     -72.32410000
C      -48.13300000     -35.83340000     -72.77040000
C      -46.96120000     -35.05040000     -70.88170000
H      -48.32560000     -35.98430000     -73.82010000
C      -48.17150000     -35.41640000     -70.30870000
C      -46.05470000     -34.53700000     -69.78900000
C      -46.66020000     -34.69220000     -68.54050000
S      -49.27860000     -36.27030000     -71.44860000
S      -48.19910000     -35.44640000     -68.59940000
H      -46.29930000     -34.58030000     -67.51400000
