40
Properties=species:S:1:pos:R:3 #=T CELL(abcABC):=T 1.889726e+02=T 90.00000=T Traj:=T positionsangstrom=T Step:=T 0=T Bead:=T pbc="F F F"
C      -47.55050000     -32.24260000     -70.45020000
C      -47.91060000     -32.92520000     -71.64220000
C      -47.25730000     -32.65100000     -72.83930000
C      -46.29190000     -31.64480000     -72.99090000
C      -45.87970000     -31.02100000     -71.76150000
C      -46.52080000     -31.31200000     -70.56350000
H      -48.09920000     -32.37780000     -69.52160000
H      -47.44720000     -33.13590000     -73.72860000
H      -45.23730000     -30.11860000     -71.76410000
H      -46.18800000     -30.71850000     -69.67000000
C      -45.69240000     -31.35860000     -74.33260000
H      -45.43990000     -30.25480000     -74.37090000
H      -46.26750000     -31.50570000     -75.20000000
C      -48.98160000     -33.98190000     -71.52650000
H      -50.00950000     -33.65670000     -71.11190000
H      -49.24750000     -34.46860000     -72.44180000
S      -44.06110000     -32.27300000     -74.52330000
S      -48.26680000     -35.25890000     -70.43720000
C      -44.51830000     -34.01300000     -73.95080000
H      -45.43000000     -33.96940000     -73.36170000
H      -44.76180000     -34.63330000     -74.87010000
C      -46.97630000     -35.94890000     -71.55210000
H      -46.90190000     -35.36200000     -72.45520000
H      -47.34800000     -36.93450000     -71.90790000
C      -45.61380000     -35.94750000     -70.86590000
H      -45.59100000     -36.89510000     -70.19110000
H      -44.74650000     -36.20460000     -71.57100000
C      -43.35760000     -34.59930000     -73.13460000
H      -42.46890000     -34.47160000     -73.79230000
H      -43.60220000     -35.67460000     -72.90650000
C      -43.18000000     -33.94490000     -71.75760000
C      -42.11910000     -33.14120000     -71.51920000
C      -44.04560000     -34.02550000     -70.54040000
H      -41.26520000     -32.99490000     -72.24350000
C      -43.53080000     -33.27770000     -69.46650000
C      -45.22690000     -34.72040000     -70.11290000
C      -45.76320000     -34.28770000     -68.92950000
S      -42.09060000     -32.41720000     -69.95230000
S      -44.63600000     -33.28500000     -68.07660000
H      -46.40160000     -34.73770000     -68.19560000
