40
Properties=species:S:1:pos:R:3 #=T CELL(abcABC):=T 1.889726e+02=T 90.00000=T Traj:=T positionsangstrom=T Step:=T 0=T Bead:=T pbc="F F F"
C      -47.13410000     -31.69740000     -70.24940000
C      -47.77510000     -32.32840000     -71.37940000
C      -47.08810000     -32.34390000     -72.57500000
C      -45.84090000     -31.75620000     -72.81120000
C      -45.24590000     -31.09350000     -71.71950000
C      -45.97460000     -30.99280000     -70.52330000
H      -47.59600000     -31.38820000     -69.27750000
H      -47.60610000     -32.70780000     -73.40780000
H      -44.24130000     -30.66450000     -71.89560000
H      -45.57920000     -30.34420000     -69.73120000
C      -45.27550000     -31.77200000     -74.19620000
H      -44.98450000     -30.66990000     -74.39260000
H      -46.09600000     -32.05890000     -74.82440000
C      -49.05390000     -33.07320000     -71.24710000
H      -49.68680000     -32.56250000     -70.50870000
H      -49.53930000     -32.99440000     -72.24430000
S      -43.78790000     -32.75890000     -74.60480000
S      -48.66880000     -34.75940000     -70.74120000
C      -44.16630000     -34.48680000     -73.94460000
H      -45.10590000     -34.42790000     -73.44630000
H      -44.26750000     -35.16680000     -74.80910000
C      -47.39640000     -35.43620000     -71.96370000
H      -47.09220000     -34.71110000     -72.69960000
H      -47.93100000     -36.26870000     -72.46050000
C      -46.15890000     -36.03050000     -71.17450000
H      -46.60380000     -36.85760000     -70.62310000
H      -45.53960000     -36.55720000     -71.87360000
C      -43.12270000     -34.94730000     -72.94110000
H      -42.07110000     -34.97860000     -73.31970000
H      -43.19780000     -36.05370000     -72.79840000
C      -43.08660000     -34.19790000     -71.61180000
C      -42.11820000     -33.23450000     -71.28310000
C      -44.13620000     -34.19210000     -70.60370000
H      -41.23550000     -33.09200000     -71.77370000
C      -43.79100000     -33.42370000     -69.50160000
C      -45.29780000     -35.03570000     -70.26420000
C      -45.72770000     -34.75850000     -69.03430000
S      -42.43130000     -32.42910000     -69.74460000
S      -44.97180000     -33.42310000     -68.25980000
H      -46.61230000     -35.16110000     -68.60070000
