40
Properties=species:S:1:pos:R:3 #=T CELL(abcABC):=T 1.889726e+02=T 90.00000=T Traj:=T positionsangstrom=T Step:=T 0=T Bead:=T pbc="F F F"
C      -47.28040000     -31.72150000     -70.39670000
C      -47.92080000     -32.39100000     -71.42650000
C      -47.37050000     -32.26690000     -72.69120000
C      -46.05600000     -31.73370000     -72.89020000
C      -45.36700000     -31.19390000     -71.80970000
C      -46.02910000     -31.07860000     -70.55530000
H      -47.63320000     -31.82480000     -69.36780000
H      -47.86360000     -32.67730000     -73.60100000
H      -44.35530000     -30.76420000     -71.87400000
H      -45.61900000     -30.69070000     -69.70440000
C      -45.43170000     -31.80370000     -74.34850000
H      -45.22630000     -30.88920000     -74.79360000
H      -46.10520000     -32.31600000     -75.06430000
C      -49.15100000     -33.24340000     -71.11890000
H      -49.60050000     -32.99060000     -70.12160000
H      -49.96110000     -33.24970000     -71.80670000
S      -43.74110000     -32.66430000     -74.32560000
S      -48.64490000     -35.04710000     -70.81110000
C      -44.21100000     -34.42280000     -73.91190000
H      -45.18430000     -34.51890000     -73.46700000
H      -44.17850000     -35.07920000     -74.81830000
C      -47.19540000     -35.38010000     -71.88580000
H      -47.02350000     -34.47090000     -72.48290000
H      -47.54280000     -36.11140000     -72.65990000
C      -45.90780000     -35.87440000     -71.22360000
H      -46.11940000     -36.79240000     -70.62830000
H      -45.18150000     -36.15500000     -72.04790000
C      -43.20040000     -34.92040000     -72.91470000
H      -42.19830000     -34.85810000     -73.33980000
H      -43.52680000     -35.88290000     -72.63650000
C      -43.19470000     -34.16110000     -71.65930000
C      -42.13030000     -33.28470000     -71.39720000
C      -44.10460000     -34.15440000     -70.56040000
H      -41.45590000     -33.06380000     -72.12460000
C      -43.73690000     -33.28650000     -69.52980000
C      -45.34660000     -34.85520000     -70.28970000
C      -45.88110000     -34.51450000     -69.08650000
S      -42.23800000     -32.43420000     -69.84500000
S      -44.79800000     -33.39430000     -68.09900000
H      -46.72270000     -35.06490000     -68.72470000
