40
Properties=species:S:1:pos:R:3 #=T CELL(abcABC):=T 1.889726e+02=T 90.00000=T Traj:=T positionsangstrom=T Step:=T 0=T Bead:=T pbc="F F F"
C      -47.65820000     -32.24740000     -70.75450000
C      -47.89490000     -33.22670000     -71.71330000
C      -47.33380000     -33.03760000     -72.97710000
C      -46.52480000     -31.98920000     -73.36100000
C      -46.28710000     -31.04130000     -72.33490000
C      -46.85310000     -31.10970000     -71.07630000
H      -48.18550000     -32.13770000     -69.76750000
H      -47.42890000     -33.82850000     -73.73560000
H      -45.70740000     -30.14650000     -72.50720000
H      -46.80260000     -30.29290000     -70.36620000
C      -45.82590000     -31.91210000     -74.65370000
H      -45.89000000     -30.88580000     -75.02870000
H      -46.35960000     -32.51390000     -75.32100000
C      -48.71120000     -34.49620000     -71.46120000
H      -49.67320000     -34.24020000     -70.94740000
H      -48.93050000     -35.03800000     -72.40180000
S      -44.02770000     -32.51390000     -74.69150000
S      -47.74190000     -35.71030000     -70.47490000
C      -44.10580000     -34.13550000     -73.90600000
H      -45.08560000     -34.27860000     -73.49540000
H      -44.10460000     -34.95520000     -74.68800000
C      -46.28860000     -36.04300000     -71.51220000
H      -46.13650000     -35.09570000     -72.06250000
H      -46.34290000     -36.89370000     -72.25910000
C      -45.04500000     -36.28520000     -70.59130000
H      -45.38850000     -37.05900000     -69.86150000
H      -44.16160000     -36.58820000     -71.07330000
C      -43.04300000     -34.34350000     -72.81230000
H      -42.08240000     -33.92350000     -73.26950000
H      -42.89450000     -35.43740000     -72.55610000
C      -43.26970000     -33.49090000     -71.56360000
C      -42.65080000     -32.21800000     -71.43590000
C      -43.99020000     -33.83020000     -70.31940000
H      -42.06130000     -31.72100000     -72.19400000
C      -43.99300000     -32.79690000     -69.36810000
C      -44.74850000     -34.98250000     -69.79290000
C      -45.21960000     -34.72200000     -68.52890000
S      -43.00810000     -31.43680000     -69.88060000
S      -44.75310000     -33.17520000     -67.85510000
H      -45.66420000     -35.43440000     -67.84930000
