40
Properties=species:S:1:pos:R:3 #=T CELL(abcABC):=T 1.889726e+02=T 90.00000=T Traj:=T positionsangstrom=T Step:=T 0=T Bead:=T pbc="F F F"
C      -47.83670000     -32.68120000     -70.81420000
C      -47.88320000     -33.59830000     -71.88380000
C      -47.26800000     -33.27230000     -73.10110000
C      -46.42600000     -32.10700000     -73.21980000
C      -46.21300000     -31.31290000     -72.07740000
C      -46.99370000     -31.54870000     -70.93280000
H      -48.31430000     -32.81720000     -69.89160000
H      -47.44700000     -33.91790000     -74.00460000
H      -45.58240000     -30.49370000     -72.13190000
H      -46.80350000     -30.93020000     -70.09510000
C      -45.65540000     -31.78550000     -74.53880000
H      -45.53780000     -30.75170000     -74.66050000
H      -46.30900000     -32.11340000     -75.34620000
C      -48.66350000     -34.90380000     -71.75460000
H      -49.71510000     -34.80670000     -71.39820000
H      -48.52430000     -35.34590000     -72.72310000
S      -43.99350000     -32.55750000     -74.70200000
S      -47.89150000     -35.98470000     -70.45050000
C      -44.06080000     -34.27410000     -73.91010000
H      -45.11650000     -34.47860000     -73.55370000
H      -43.68010000     -34.90050000     -74.72790000
C      -46.15490000     -36.01350000     -71.15430000
H      -46.08830000     -35.16050000     -71.89900000
H      -46.15390000     -36.90260000     -71.86060000
C      -44.90310000     -36.15080000     -70.17200000
H      -44.99790000     -36.79740000     -69.28020000
H      -44.15450000     -36.60120000     -70.86070000
C      -43.07870000     -34.41490000     -72.61370000
H      -42.04660000     -34.39880000     -73.04830000
H      -43.30690000     -35.42580000     -72.28470000
C      -43.18350000     -33.45070000     -71.45790000
C      -42.64430000     -32.18060000     -71.55040000
C      -43.95950000     -33.62660000     -70.27270000
H      -42.17790000     -31.75160000     -72.48710000
C      -43.90150000     -32.53700000     -69.42480000
C      -44.66260000     -34.74230000     -69.66710000
C      -45.27190000     -34.30460000     -68.50920000
S      -43.05320000     -31.19290000     -70.17810000
S      -44.88310000     -32.66450000     -68.02710000
H      -45.83650000     -34.88560000     -67.83680000
