40
Properties=species:S:1:pos:R:3 #=T CELL(abcABC):=T 1.889726e+02=T 90.00000=T Traj:=T positionsangstrom=T Step:=T 0=T Bead:=T pbc="F F F"
C      -46.88700000     -33.04160000     -74.81860000
C      -46.04860000     -34.13810000     -74.58670000
C      -44.65610000     -33.98420000     -74.50040000
C      -44.11100000     -32.70550000     -74.63330000
C      -44.94570000     -31.60760000     -75.00170000
C      -46.32560000     -31.83030000     -75.07280000
H      -47.91610000     -33.22970000     -74.84670000
H      -43.97820000     -34.75360000     -74.10510000
H      -44.41770000     -30.68770000     -75.17760000
H      -47.06920000     -31.01520000     -75.21080000
C      -42.61230000     -32.55830000     -74.36420000
H      -42.23700000     -31.65380000     -74.86890000
H      -42.19250000     -33.40620000     -74.94240000
C      -46.58150000     -35.54130000     -74.63520000
H      -47.68450000     -35.63060000     -74.68200000
H      -46.03120000     -36.10600000     -75.42470000
S      -42.07550000     -32.91260000     -72.55280000
S      -46.05850000     -36.52790000     -73.11170000
C      -43.44400000     -32.24830000     -71.43240000
H      -43.44220000     -31.12940000     -71.37180000
H      -44.42660000     -32.43080000     -71.88150000
C      -46.75180000     -35.70160000     -71.56060000
H      -46.87020000     -36.35460000     -70.61770000
H      -47.75620000     -35.43180000     -71.75580000
C      -45.85320000     -34.56430000     -71.09150000
H      -44.85820000     -35.01610000     -70.87400000
H      -45.72810000     -33.77230000     -71.91460000
C      -43.19860000     -32.79880000     -70.07880000
H      -42.22690000     -32.47340000     -69.77030000
H      -43.04470000     -33.91480000     -70.14690000
C      -44.25090000     -32.47080000     -69.06460000
C      -43.95760000     -31.81200000     -67.91750000
C      -45.62300000     -33.03570000     -69.03210000
H      -42.98270000     -31.35470000     -67.61660000
C      -46.24460000     -32.58820000     -67.89600000
C      -46.44870000     -33.94850000     -69.79780000
C      -47.62390000     -34.23910000     -69.15480000
S      -45.33950000     -31.56880000     -66.84240000
S      -47.87400000     -33.21390000     -67.79770000
H      -48.46430000     -34.84400000     -69.64020000
