40
Properties=species:S:1:pos:R:3 #=T CELL(abcABC):=T 1.889726e+02=T 90.00000=T Traj:=T positionsangstrom=T Step:=T 0=T Bead:=T pbc="F F F"
C      -47.69290000     -32.60900000     -70.57460000
C      -47.77620000     -33.59000000     -71.55910000
C      -47.11890000     -33.41880000     -72.85940000
C      -46.42310000     -32.27600000     -73.16740000
C      -46.27700000     -31.27400000     -72.16060000
C      -46.94440000     -31.43900000     -70.93560000
H      -48.19690000     -32.62660000     -69.65250000
H      -47.32600000     -34.20930000     -73.60620000
H      -45.75270000     -30.28200000     -72.31030000
H      -46.95030000     -30.57380000     -70.23640000
C      -45.80950000     -32.07540000     -74.51740000
H      -45.89270000     -31.05390000     -74.89530000
H      -46.33950000     -32.68460000     -75.22670000
C      -48.62030000     -34.93430000     -71.37930000
H      -49.58990000     -34.74110000     -70.97230000
H      -48.99830000     -35.40320000     -72.32500000
S      -44.01630000     -32.60420000     -74.54380000
S      -47.69620000     -36.27410000     -70.38470000
C      -44.03530000     -34.35630000     -73.80720000
H      -45.09240000     -34.53600000     -73.50570000
H      -43.85390000     -35.13700000     -74.61080000
C      -46.06670000     -36.23490000     -71.23600000
H      -46.14510000     -35.46680000     -72.02620000
H      -46.03970000     -37.24650000     -71.69710000
C      -44.91150000     -36.05050000     -70.29400000
H      -44.97360000     -36.66470000     -69.37550000
H      -43.98050000     -36.22950000     -70.83520000
C      -42.98910000     -34.37500000     -72.67770000
H      -42.01950000     -34.41930000     -73.17840000
H      -43.11560000     -35.35570000     -72.18520000
C      -43.22660000     -33.30810000     -71.62100000
C      -42.57210000     -32.10290000     -71.62610000
C      -44.01640000     -33.46960000     -70.40200000
H      -41.81600000     -31.85750000     -72.42650000
C      -44.09310000     -32.31030000     -69.61300000
C      -44.74910000     -34.61130000     -69.85270000
C      -45.30270000     -34.24210000     -68.65170000
S      -43.06710000     -31.05810000     -70.33170000
S      -45.08260000     -32.52090000     -68.17050000
H      -46.02540000     -34.86400000     -68.13300000
