40
Properties=species:S:1:pos:R:3 #=T CELL(abcABC):=T 1.889726e+02=T 90.00000=T Traj:=T positionsangstrom=T Step:=T 0=T Bead:=T pbc="F F F"
C      -46.82130000     -33.22420000     -75.06850000
C      -46.02600000     -34.27310000     -74.66650000
C      -44.65860000     -33.96760000     -74.37880000
C      -44.15360000     -32.65610000     -74.57880000
C      -45.04530000     -31.60170000     -74.86790000
C      -46.41320000     -31.90630000     -75.08660000
H      -47.83210000     -33.41780000     -75.42420000
H      -43.99270000     -34.73950000     -74.04330000
H      -44.61260000     -30.63280000     -74.68900000
H      -47.07170000     -31.16920000     -75.42430000
C      -42.74590000     -32.32500000     -74.25870000
H      -42.63970000     -31.24180000     -74.13110000
H      -42.00680000     -32.59700000     -74.99550000
C      -46.73550000     -35.57940000     -74.31930000
H      -47.65420000     -35.07740000     -73.84630000
H      -46.98240000     -36.01650000     -75.28930000
S      -42.12140000     -32.97230000     -72.61740000
S      -45.99110000     -36.64350000     -73.05000000
C      -43.20320000     -32.19190000     -71.32730000
H      -42.99600000     -31.20110000     -71.44160000
H      -44.19080000     -32.44840000     -71.75750000
C      -46.61670000     -35.82660000     -71.58570000
H      -46.69850000     -36.62110000     -70.84710000
H      -47.63190000     -35.63090000     -71.89760000
C      -45.84120000     -34.55460000     -71.15910000
H      -44.77270000     -34.86660000     -71.00390000
H      -45.82490000     -33.80520000     -71.84840000
C      -43.07590000     -32.76360000     -69.94070000
H      -42.20990000     -32.29860000     -69.48770000
H      -42.96940000     -33.83430000     -69.99800000
C      -44.24010000     -32.39650000     -69.00480000
C      -44.06050000     -31.50610000     -67.96540000
C      -45.52040000     -33.06610000     -69.03390000
H      -43.26610000     -30.82130000     -67.82620000
C      -46.23950000     -32.66250000     -67.92200000
C      -46.33570000     -33.99270000     -69.84750000
C      -47.58770000     -34.21050000     -69.29610000
S      -45.46990000     -31.45220000     -66.95970000
S      -47.84290000     -33.25460000     -67.83950000
H      -48.40320000     -34.93440000     -69.68920000
