40
Properties=species:S:1:pos:R:3 #=T CELL(abcABC):=T 1.889726e+02=T 90.00000=T Traj:=T positionsangstrom=T Step:=T 0=T Bead:=T pbc="F F F"
C      -49.80400000     -33.75780000     -70.57770000
C      -48.64600000     -34.31360000     -70.06480000
C      -47.78180000     -35.11700000     -70.84000000
C      -47.95800000     -35.22360000     -72.19110000
C      -49.15490000     -34.71400000     -72.74460000
C      -49.96790000     -33.91430000     -71.93740000
H      -50.41690000     -33.05860000     -69.97410000
H      -46.89000000     -35.63570000     -70.40880000
H      -49.36240000     -34.67110000     -73.79300000
H      -50.82860000     -33.40800000     -72.34580000
C      -47.06440000     -36.10750000     -73.01200000
H      -47.37280000     -36.16420000     -74.07410000
H      -46.88010000     -37.12220000     -72.51100000
C      -48.21200000     -34.19670000     -68.65510000
H      -48.96170000     -34.34020000     -67.88760000
H      -47.49680000     -35.03190000     -68.45440000
S      -45.31810000     -35.45710000     -73.15260000
S      -47.43840000     -32.50010000     -68.38490000
C      -45.58380000     -33.87780000     -74.04460000
H      -44.83360000     -33.77420000     -74.88660000
H      -46.57260000     -33.97640000     -74.63010000
C      -46.05980000     -32.28410000     -69.60160000
H      -45.52990000     -31.41130000     -69.32030000
H      -46.46970000     -32.07510000     -70.58330000
C      -45.08710000     -33.38860000     -69.62350000
H      -45.06370000     -34.01790000     -68.74630000
H      -45.43220000     -34.15180000     -70.34360000
C      -45.40380000     -32.72970000     -73.11530000
H      -45.80580000     -32.96050000     -72.24320000
H      -45.96020000     -31.80490000     -73.42700000
C      -43.91780000     -32.39160000     -72.72650000
C      -43.09690000     -31.81880000     -73.65500000
C      -43.29130000     -32.60940000     -71.44400000
H      -43.33950000     -31.44730000     -74.62060000
C      -41.93680000     -32.26650000     -71.46850000
C      -43.65830000     -33.11390000     -70.12300000
C      -42.62220000     -33.05250000     -69.23980000
S      -41.46310000     -31.45060000     -72.96580000
S      -41.10240000     -32.38100000     -69.96720000
H      -42.75160000     -33.35370000     -68.15610000
