40
Properties=species:S:1:pos:R:3 #=T CELL(abcABC):=T 1.889726e+02=T 90.00000=T Traj:=T positionsangstrom=T Step:=T 0=T Bead:=T pbc="F F F"
C      -47.79860000     -32.67670000     -71.30980000
C      -47.62100000     -33.86970000     -71.99370000
C      -46.94670000     -33.90910000     -73.19140000
C      -46.41520000     -32.71320000     -73.68870000
C      -46.55190000     -31.51060000     -73.04050000
C      -47.22910000     -31.50200000     -71.84290000
H      -48.29060000     -32.70000000     -70.35280000
H      -46.61650000     -34.85970000     -73.68240000
H      -46.05230000     -30.66580000     -73.48470000
H      -47.40260000     -30.53730000     -71.36900000
C      -45.56470000     -32.75260000     -74.91110000
H      -45.51840000     -31.91370000     -75.56140000
H      -45.92460000     -33.65110000     -75.50570000
C      -48.27830000     -35.12820000     -71.40730000
H      -49.15340000     -34.67910000     -70.87330000
H      -48.54350000     -35.73010000     -72.22070000
S      -43.74000000     -33.02700000     -74.56670000
S      -47.50620000     -36.12150000     -70.09310000
C      -43.61620000     -34.53240000     -73.60880000
H      -44.60810000     -34.89340000     -73.25130000
H      -43.22300000     -35.36720000     -74.23750000
C      -45.72490000     -36.19250000     -70.68480000
H      -45.72250000     -35.42320000     -71.51020000
H      -45.43810000     -37.15170000     -71.17870000
C      -44.67290000     -35.87370000     -69.64590000
H      -44.93300000     -36.52670000     -68.81270000
H      -43.73450000     -36.14280000     -70.09540000
C      -42.86630000     -34.35070000     -72.25800000
H      -41.71790000     -34.19300000     -72.34640000
H      -42.88470000     -35.32730000     -71.70390000
C      -43.40530000     -33.19750000     -71.38550000
C      -43.09240000     -31.87630000     -71.63690000
C      -44.09590000     -33.30750000     -70.07930000
H      -42.55990000     -31.54410000     -72.48490000
C      -44.29950000     -32.03590000     -69.51790000
C      -44.71560000     -34.37060000     -69.31310000
C      -45.37680000     -33.84830000     -68.20210000
S      -43.76240000     -30.72810000     -70.52720000
S      -45.10780000     -32.14240000     -67.98390000
H      -45.90700000     -34.43470000     -67.45880000
