40
Properties=species:S:1:pos:R:3 #=T CELL(abcABC):=T 1.889726e+02=T 90.00000=T Traj:=T positionsangstrom=T Step:=T 0=T Bead:=T pbc="F F F"
C      -49.54900000     -33.40360000     -70.63880000
C      -48.46870000     -33.97830000     -69.94670000
C      -47.69950000     -34.93930000     -70.58410000
C      -47.97170000     -35.35280000     -71.88640000
C      -49.01920000     -34.78110000     -72.56940000
C      -49.88300000     -33.86730000     -71.93340000
H      -50.17490000     -32.69240000     -70.15080000
H      -46.85260000     -35.32620000     -70.00400000
H      -49.12780000     -35.12300000     -73.57900000
H      -50.76500000     -33.43920000     -72.41130000
C      -47.26460000     -36.52310000     -72.50940000
H      -47.96910000     -37.04700000     -73.17270000
H      -46.72750000     -37.18470000     -71.87440000
C      -48.12180000     -33.43470000     -68.61880000
H      -49.02020000     -33.35390000     -68.05310000
H      -47.46240000     -34.02410000     -67.99520000
S      -45.77970000     -35.97700000     -73.57640000
S      -47.49740000     -31.67960000     -68.57940000
C      -45.87460000     -34.23280000     -73.89740000
H      -45.46130000     -33.96350000     -74.84190000
H      -46.93060000     -33.88930000     -74.02450000
C      -46.02250000     -31.80190000     -69.65810000
H      -45.61550000     -30.78940000     -69.67030000
H      -46.29220000     -31.95530000     -70.75250000
C      -44.95790000     -32.87420000     -69.36080000
H      -44.85780000     -33.06320000     -68.29090000
H      -45.24540000     -33.90230000     -69.78030000
C      -45.33390000     -33.26160000     -72.85590000
H      -45.86270000     -33.51010000     -71.93040000
H      -45.84760000     -32.31330000     -73.09080000
C      -43.86440000     -33.05680000     -72.68540000
C      -43.01550000     -32.90320000     -73.70090000
C      -43.24990000     -32.73090000     -71.38720000
H      -43.27920000     -33.11480000     -74.63800000
C      -41.89970000     -32.39200000     -71.55920000
C      -43.59540000     -32.56550000     -69.97760000
C      -42.52090000     -32.23660000     -69.16040000
S      -41.33440000     -32.53890000     -73.15460000
S      -41.05350000     -31.85300000     -70.08520000
H      -42.70630000     -31.90330000     -68.14830000
