40
Properties=species:S:1:pos:R:3 #=T CELL(abcABC):=T 1.889726e+02=T 90.00000=T Traj:=T positionsangstrom=T Step:=T 0=T Bead:=T pbc="F F F"
C      -47.64100000     -32.73070000     -71.68850000
C      -47.69720000     -34.08260000     -72.14410000
C      -46.93520000     -34.45960000     -73.21580000
C      -46.10330000     -33.48960000     -73.87200000
C      -46.06450000     -32.13250000     -73.39960000
C      -46.88240000     -31.77420000     -72.34990000
H      -48.28870000     -32.48750000     -70.81430000
H      -46.98050000     -35.43910000     -73.66420000
H      -45.47530000     -31.39250000     -73.95550000
H      -46.94550000     -30.76300000     -71.96120000
C      -45.29510000     -34.04780000     -75.04880000
H      -45.56590000     -33.55510000     -76.05720000
H      -45.40260000     -35.06330000     -75.24100000
C      -48.58060000     -35.02220000     -71.40190000
H      -49.41780000     -34.57480000     -71.03240000
H      -48.92430000     -35.84720000     -72.13730000
S      -43.57060000     -33.60150000     -74.49550000
S      -47.63250000     -35.84310000     -69.90630000
C      -43.34580000     -34.77010000     -73.03230000
H      -44.35350000     -35.11240000     -72.80900000
H      -42.66360000     -35.53550000     -73.42380000
C      -45.82890000     -36.11630000     -70.48580000
H      -45.85190000     -35.64580000     -71.46200000
H      -45.44710000     -37.19220000     -70.63100000
C      -44.72050000     -35.44510000     -69.60000000
H      -44.59000000     -35.97430000     -68.64890000
H      -43.75330000     -35.55130000     -70.09340000
C      -42.58020000     -34.08210000     -71.85500000
H      -41.71380000     -33.65540000     -72.36780000
H      -42.26750000     -34.75640000     -71.04500000
C      -43.27590000     -32.87480000     -71.18490000
C      -42.97000000     -31.59300000     -71.49480000
C      -44.23380000     -32.91990000     -70.08100000
H      -42.21500000     -31.33380000     -72.32490000
C      -44.52920000     -31.66930000     -69.55300000
C      -44.95110000     -33.96850000     -69.38700000
C      -45.73750000     -33.53840000     -68.30550000
S      -43.66780000     -30.41090000     -70.50170000
S      -45.64830000     -31.69080000     -68.15000000
H      -46.27470000     -34.15450000     -67.64270000
