40
Properties=species:S:1:pos:R:3 #=T CELL(abcABC):=T 1.889726e+02=T 90.00000=T Traj:=T positionsangstrom=T Step:=T 0=T Bead:=T pbc="F F F"
C      -47.83540000     -32.87650000     -71.61290000
C      -47.56680000     -34.19340000     -71.92570000
C      -46.65530000     -34.36920000     -72.97850000
C      -45.91500000     -33.31850000     -73.60800000
C      -46.14440000     -32.02050000     -73.16300000
C      -47.11820000     -31.83580000     -72.15910000
H      -48.44760000     -32.71400000     -70.72440000
H      -46.50800000     -35.36340000     -73.38090000
H      -45.62280000     -31.15860000     -73.56530000
H      -47.22570000     -30.81000000     -71.81210000
C      -45.02860000     -33.70150000     -74.76110000
H      -45.07520000     -33.01830000     -75.52410000
H      -45.36260000     -34.69470000     -75.18060000
C      -48.24420000     -35.38520000     -71.31130000
H      -49.19550000     -35.04890000     -70.80680000
H      -48.41950000     -36.02390000     -72.18590000
S      -43.30480000     -33.86240000     -74.29760000
S      -47.33840000     -36.17900000     -69.88660000
C      -43.30490000     -34.89060000     -72.83390000
H      -44.30460000     -35.23010000     -72.60880000
H      -42.78010000     -35.77700000     -73.19660000
C      -45.50090000     -36.02560000     -70.10280000
H      -45.27680000     -35.45920000     -71.12020000
H      -45.09120000     -37.01810000     -70.24360000
C      -44.85580000     -35.16920000     -68.99160000
H      -45.26940000     -35.58400000     -68.00630000
H      -43.75200000     -35.37430000     -69.04110000
C      -42.60520000     -34.31810000     -71.64720000
H      -41.51810000     -34.07240000     -71.85460000
H      -42.62560000     -35.02290000     -70.73940000
C      -43.32700000     -33.03460000     -71.16820000
C      -42.97840000     -31.80720000     -71.67210000
C      -44.39410000     -32.85300000     -70.13280000
H      -42.17530000     -31.71490000     -72.36530000
C      -44.71890000     -31.52570000     -69.97930000
C      -45.09540000     -33.71660000     -69.19530000
C      -45.92260000     -32.96310000     -68.41340000
S      -43.94690000     -30.48310000     -71.14320000
S      -46.01580000     -31.30460000     -68.80320000
H      -46.64050000     -33.44700000     -67.81110000
