40
Properties=species:S:1:pos:R:3 #=T CELL(abcABC):=T 1.889726e+02=T 90.00000=T Traj:=T positionsangstrom=T Step:=T 0=T Bead:=T pbc="F F F"
C      -47.79230000     -33.19170000     -71.55980000
C      -47.78570000     -34.49930000     -72.20100000
C      -47.02430000     -34.68920000     -73.35560000
C      -46.20050000     -33.68980000     -73.86290000
C      -46.26820000     -32.39600000     -73.24430000
C      -47.14750000     -32.14950000     -72.19340000
H      -48.27600000     -33.03360000     -70.64320000
H      -47.00750000     -35.69280000     -73.79720000
H      -45.56510000     -31.61010000     -73.49070000
H      -47.25840000     -31.11550000     -71.77780000
C      -45.32180000     -33.99170000     -75.08670000
H      -45.32450000     -33.18060000     -75.84000000
H      -45.58610000     -34.89740000     -75.59100000
C      -48.32520000     -35.64140000     -71.38350000
H      -49.40980000     -35.51030000     -71.29450000
H      -48.18220000     -36.62590000     -71.91700000
S      -43.48840000     -34.07440000     -74.61540000
S      -47.52440000     -35.71870000     -69.65620000
C      -43.54110000     -34.76900000     -72.88270000
H      -44.56780000     -34.84390000     -72.54730000
H      -43.01730000     -35.67890000     -72.97660000
C      -45.75750000     -36.07700000     -69.97350000
H      -45.63170000     -35.85330000     -71.04840000
H      -45.54580000     -37.14170000     -69.87490000
C      -44.76220000     -35.23430000     -69.20640000
H      -44.97060000     -35.46850000     -68.16540000
H      -43.69750000     -35.51260000     -69.25010000
C      -42.64830000     -34.01640000     -71.89920000
H      -41.72860000     -33.73200000     -72.39790000
H      -42.24690000     -34.79310000     -71.17750000
C      -43.20950000     -32.71940000     -71.26300000
C      -42.96730000     -31.45180000     -71.67380000
C      -44.12200000     -32.68480000     -70.08930000
H      -42.46200000     -31.26640000     -72.66160000
C      -44.45510000     -31.40820000     -69.71480000
C      -44.86970000     -33.70280000     -69.37740000
C      -45.69000000     -33.09420000     -68.38010000
S      -43.69210000     -30.17850000     -70.74630000
S      -45.60170000     -31.26450000     -68.41740000
H      -46.27480000     -33.72640000     -67.68190000
