40
Properties=species:S:1:pos:R:3 #=T CELL(abcABC):=T 1.889726e+02=T 90.00000=T Traj:=T positionsangstrom=T Step:=T 0=T Bead:=T pbc="F F F"
C      -47.81820000     -33.08730000     -71.63320000
C      -47.78260000     -34.43060000     -72.06940000
C      -46.94490000     -34.73010000     -73.17440000
C      -46.30980000     -33.77390000     -73.94110000
C      -46.32670000     -32.43140000     -73.48780000
C      -47.10220000     -32.14510000     -72.38530000
H      -48.38960000     -32.75990000     -70.77880000
H      -46.94220000     -35.74610000     -73.48970000
H      -46.07640000     -31.51690000     -74.09780000
H      -47.08270000     -31.15530000     -71.90670000
C      -45.36370000     -34.16990000     -75.07880000
H      -45.50980000     -33.53860000     -75.96090000
H      -45.54830000     -35.22920000     -75.38290000
C      -48.32170000     -35.47230000     -71.16570000
H      -49.32110000     -35.19940000     -71.10180000
H      -48.45180000     -36.52220000     -71.59500000
S      -43.64230000     -33.93100000     -74.54500000
S      -47.47000000     -35.50570000     -69.56940000
C      -43.51860000     -34.74460000     -72.93200000
H      -44.55220000     -34.91000000     -72.51790000
H      -43.19910000     -35.78550000     -73.16240000
C      -45.79390000     -35.84440000     -70.29360000
H      -45.77140000     -35.28330000     -71.18190000
H      -45.78750000     -36.98920000     -70.34340000
C      -44.66600000     -35.32410000     -69.43550000
H      -44.60520000     -35.91120000     -68.45810000
H      -43.71170000     -35.60580000     -70.00710000
C      -42.65360000     -34.03960000     -71.91450000
H      -41.78580000     -33.78020000     -72.53910000
H      -42.18370000     -34.66700000     -71.15120000
C      -43.18810000     -32.82770000     -71.19350000
C      -42.88420000     -31.57440000     -71.58720000
C      -44.14500000     -32.81040000     -70.07330000
H      -42.25260000     -31.27900000     -72.45230000
C      -44.53840000     -31.48320000     -69.79340000
C      -44.78510000     -33.80190000     -69.29840000
C      -45.48370000     -33.08150000     -68.24220000
S      -43.67750000     -30.27230000     -70.73640000
S      -45.59480000     -31.39830000     -68.40220000
H      -46.20920000     -33.54160000     -67.61100000
