40
Properties=species:S:1:pos:R:3 #=T CELL(abcABC):=T 1.889726e+02=T 90.00000=T Traj:=T positionsangstrom=T Step:=T 0=T Bead:=T pbc="F F F"
C      -49.41120000     -33.51050000     -71.11560000
C      -48.46500000     -34.44660000     -70.66140000
C      -47.74010000     -35.26550000     -71.49930000
C      -47.85120000     -35.10450000     -72.88950000
C      -48.86980000     -34.27040000     -73.36260000
C      -49.58080000     -33.44840000     -72.48140000
H      -49.96170000     -32.77890000     -70.54770000
H      -46.99330000     -35.88880000     -71.03660000
H      -48.97370000     -34.19880000     -74.42310000
H      -50.34770000     -32.82400000     -72.89580000
C      -47.04980000     -35.91330000     -73.86680000
H      -47.58930000     -36.00520000     -74.86220000
H      -46.95190000     -36.96510000     -73.62640000
C      -48.22740000     -34.70060000     -69.15850000
H      -49.15630000     -35.14000000     -68.69030000
H      -47.52090000     -35.50280000     -69.17670000
S      -45.39680000     -35.28070000     -74.15060000
S      -47.64940000     -33.25320000     -68.20040000
C      -45.45630000     -33.40460000     -74.05200000
H      -44.73020000     -33.11690000     -74.80610000
H      -46.32920000     -33.02020000     -74.48470000
C      -46.16540000     -32.66870000     -69.09410000
H      -45.71670000     -31.89790000     -68.56010000
H      -46.49170000     -32.17930000     -69.96570000
C      -45.06550000     -33.71390000     -69.33900000
H      -44.90700000     -34.22970000     -68.43200000
H      -45.35520000     -34.34550000     -70.14050000
C      -45.30320000     -32.65900000     -72.70800000
H      -45.90930000     -33.21890000     -71.99030000
H      -45.78850000     -31.68310000     -72.94460000
C      -43.93900000     -32.33430000     -72.22920000
C      -43.05390000     -31.77010000     -73.13440000
C      -43.32040000     -32.49090000     -70.93420000
H      -43.37670000     -31.50190000     -74.13240000
C      -42.00420000     -32.03700000     -70.87440000
C      -43.77970000     -33.11610000     -69.67670000
C      -42.79480000     -32.98050000     -68.73860000
S      -41.45220000     -31.42310000     -72.47140000
S      -41.29110000     -32.23980000     -69.30270000
H      -42.93230000     -33.35410000     -67.72690000
