40
Properties=species:S:1:pos:R:3 #=T CELL(abcABC):=T 1.889726e+02=T 90.00000=T Traj:=T positionsangstrom=T Step:=T 0=T Bead:=T pbc="F F F"
C      -47.93400000     -32.81150000     -71.78460000
C      -47.85070000     -34.21190000     -71.96980000
C      -47.13990000     -34.68840000     -73.12270000
C      -46.33210000     -33.78370000     -73.89300000
C      -46.43030000     -32.41250000     -73.68110000
C      -47.19890000     -31.92750000     -72.61650000
H      -48.38700000     -32.25670000     -70.92970000
H      -47.11880000     -35.80180000     -73.23640000
H      -45.72340000     -31.68210000     -74.14160000
H      -47.16020000     -30.86350000     -72.46730000
C      -45.32540000     -34.36860000     -74.94130000
H      -45.58210000     -34.08540000     -75.95910000
H      -45.28730000     -35.42270000     -74.86990000
C      -48.57990000     -35.17550000     -71.04030000
H      -49.47210000     -34.73450000     -70.56170000
H      -48.74400000     -36.16120000     -71.50050000
S      -43.67250000     -33.78400000     -74.48090000
S      -47.41350000     -35.45910000     -69.54110000
C      -43.35920000     -34.80200000     -72.89840000
H      -44.35860000     -35.00760000     -72.56240000
H      -42.87090000     -35.74820000     -73.14660000
C      -45.69670000     -36.02100000     -70.19170000
H      -45.50530000     -35.88540000     -71.26150000
H      -45.57810000     -37.07300000     -70.13200000
C      -44.56990000     -35.42620000     -69.35780000
H      -44.59560000     -35.79860000     -68.36020000
H      -43.65290000     -35.73660000     -69.75390000
C      -42.52380000     -34.00330000     -71.84290000
H      -41.62500000     -33.63940000     -72.33770000
H      -42.28950000     -34.67530000     -71.02770000
C      -43.21490000     -32.80500000     -71.29220000
C      -42.88160000     -31.56340000     -71.74070000
C      -44.15620000     -32.87730000     -70.19060000
H      -42.14630000     -31.31360000     -72.43830000
C      -44.55060000     -31.58100000     -69.84610000
C      -44.64910000     -33.91130000     -69.30390000
C      -45.55510000     -33.33020000     -68.32770000
S      -43.70400000     -30.33750000     -70.73460000
S      -45.51420000     -31.54180000     -68.41580000
H      -46.00910000     -33.91590000     -67.54130000
