40
Properties=species:S:1:pos:R:3 #=T CELL(abcABC):=T 1.889726e+02=T 90.00000=T Traj:=T positionsangstrom=T Step:=T 0=T Bead:=T pbc="F F F"
C      -48.05760000     -32.41150000     -71.34850000
C      -48.06990000     -33.69340000     -71.85570000
C      -47.26000000     -34.16520000     -72.95310000
C      -46.49780000     -33.22870000     -73.64070000
C      -46.48050000     -31.84460000     -73.14690000
C      -47.26020000     -31.45320000     -72.04590000
H      -48.70950000     -32.01000000     -70.56480000
H      -47.43590000     -35.19560000     -73.31150000
H      -45.73430000     -31.16540000     -73.55660000
H      -47.08110000     -30.52310000     -71.56670000
C      -45.58140000     -33.60330000     -74.81040000
H      -45.71090000     -32.89830000     -75.62110000
H      -45.84370000     -34.52770000     -75.22520000
C      -48.82440000     -34.75170000     -71.08210000
H      -49.77560000     -34.24310000     -70.75950000
H      -49.12410000     -35.57350000     -71.69380000
S      -43.74300000     -33.49920000     -74.33500000
S      -47.90310000     -35.31880000     -69.57820000
C      -43.66850000     -35.09620000     -73.23900000
H      -44.64170000     -35.30280000     -72.79680000
H      -43.31880000     -35.99080000     -73.71540000
C      -46.40380000     -35.91880000     -70.28920000
H      -46.27320000     -35.65380000     -71.34380000
H      -46.44490000     -36.93540000     -70.34350000
C      -45.06100000     -35.56770000     -69.62190000
H      -45.00400000     -36.08450000     -68.59300000
H      -44.30950000     -35.99260000     -70.36090000
C      -42.69260000     -34.74040000     -72.13680000
H      -41.70210000     -34.77390000     -72.53110000
H      -42.72410000     -35.57450000     -71.45500000
C      -42.90330000     -33.47140000     -71.35770000
C      -42.27700000     -32.31690000     -71.71420000
C      -43.86480000     -33.29610000     -70.31200000
H      -41.50700000     -32.06120000     -72.38740000
C      -43.99790000     -31.98460000     -69.93030000
C      -44.74880000     -34.07250000     -69.50240000
C      -45.55290000     -33.30610000     -68.65430000
S      -42.81550000     -31.01550000     -70.66370000
S      -45.19700000     -31.63010000     -68.69560000
H      -46.36040000     -33.71110000     -67.98960000
