40
Properties=species:S:1:pos:R:3 #=T CELL(abcABC):=T 1.889726e+02=T 90.00000=T Traj:=T positionsangstrom=T Step:=T 0=T Bead:=T pbc="F F F"
C      -47.38430000     -32.66890000     -71.14520000
C      -47.61990000     -33.90850000     -71.78280000
C      -47.05270000     -34.11230000     -73.07490000
C      -46.27680000     -33.09320000     -73.66670000
C      -45.95480000     -31.90850000     -72.95070000
C      -46.68620000     -31.63240000     -71.76350000
H      -47.75360000     -32.48090000     -70.15280000
H      -47.11780000     -35.17150000     -73.46460000
H      -45.32960000     -31.16790000     -73.48510000
H      -46.58710000     -30.72570000     -71.24170000
C      -45.69540000     -33.29350000     -75.00560000
H      -45.63600000     -32.40470000     -75.67360000
H      -46.22630000     -34.13190000     -75.55420000
C      -48.39960000     -35.00460000     -71.17730000
H      -49.46500000     -34.86500000     -70.88850000
H      -48.49190000     -35.77150000     -71.91080000
S      -43.91360000     -33.85870000     -74.77720000
S      -47.66520000     -35.72190000     -69.54000000
C      -43.88270000     -35.03850000     -73.38190000
H      -44.88490000     -35.27380000     -73.17000000
H      -43.58480000     -36.01850000     -73.75340000
C      -45.99180000     -36.03040000     -70.05470000
H      -45.88350000     -35.61320000     -71.07750000
H      -45.87180000     -37.11720000     -70.04870000
C      -44.88030000     -35.46290000     -69.14790000
H      -45.09660000     -35.78500000     -68.12950000
H      -44.02100000     -35.99630000     -69.42630000
C      -43.17880000     -34.61600000     -72.10560000
H      -42.10460000     -34.75150000     -72.27020000
H      -43.43590000     -35.42980000     -71.38780000
C      -43.53370000     -33.28140000     -71.48480000
C      -43.15010000     -32.14850000     -72.07370000
C      -44.22830000     -33.10490000     -70.21710000
H      -42.48420000     -32.14020000     -72.94650000
C      -44.20670000     -31.75500000     -69.91680000
C      -44.79090000     -33.90970000     -69.15690000
C      -45.39990000     -33.08390000     -68.19810000
S      -43.44210000     -30.77350000     -71.05280000
S      -45.02730000     -31.43470000     -68.46350000
H      -45.93290000     -33.38110000     -67.31450000
