40
Properties=species:S:1:pos:R:3 #=T CELL(abcABC):=T 1.889726e+02=T 90.00000=T Traj:=T positionsangstrom=T Step:=T 0=T Bead:=T pbc="F F F"
C      -46.96890000     -33.37220000     -75.25550000
C      -46.11660000     -34.30210000     -74.60030000
C      -44.79530000     -33.86480000     -74.40960000
C      -44.33520000     -32.55830000     -74.59240000
C      -45.24080000     -31.60840000     -75.12380000
C      -46.55200000     -31.99490000     -75.49420000
H      -48.03260000     -33.66050000     -75.49700000
H      -44.13290000     -34.64710000     -74.15320000
H      -44.94540000     -30.63350000     -75.41840000
H      -47.20230000     -31.28830000     -76.07150000
C      -42.95720000     -32.04020000     -74.14440000
H      -43.08930000     -31.00420000     -73.80040000
H      -42.13800000     -32.09470000     -74.92120000
C      -46.64100000     -35.66760000     -74.28680000
H      -47.70730000     -35.56730000     -73.94870000
H      -46.75250000     -36.26390000     -75.17100000
S      -42.29990000     -32.86680000     -72.58300000
S      -45.65780000     -36.57800000     -73.01720000
C      -43.41290000     -32.18600000     -71.30590000
H      -43.25290000     -31.05100000     -71.32990000
H      -44.48630000     -32.41240000     -71.57270000
C      -46.36770000     -35.98120000     -71.38800000
H      -46.32320000     -36.87920000     -70.64510000
H      -47.37640000     -35.65540000     -71.56290000
C      -45.51030000     -34.86540000     -70.86150000
H      -44.56670000     -35.36540000     -70.57450000
H      -45.26040000     -34.17430000     -71.69050000
C      -43.07980000     -32.86310000     -69.92760000
H      -42.07660000     -32.50700000     -69.69590000
H      -43.03920000     -33.95940000     -70.04380000
C      -44.17580000     -32.47320000     -68.96970000
C      -44.01960000     -31.53660000     -68.00350000
C      -45.53350000     -33.08830000     -68.94330000
H      -43.16790000     -30.84960000     -67.82420000
C      -46.27530000     -32.56650000     -67.89350000
C      -46.11640000     -34.15300000     -69.72340000
C      -47.42130000     -34.25320000     -69.30690000
S      -45.53020000     -31.33400000     -66.97480000
S      -47.86380000     -33.24670000     -67.91820000
H      -48.17730000     -34.80060000     -69.79070000
