40
Properties=species:S:1:pos:R:3 #=T CELL(abcABC):=T 1.889726e+02=T 90.00000=T Traj:=T positionsangstrom=T Step:=T 0=T Bead:=T pbc="F F F"
C      -47.86340000     -32.36350000     -71.24460000
C      -47.77130000     -33.74770000     -71.66800000
C      -47.20130000     -34.01950000     -72.92900000
C      -46.34990000     -33.06400000     -73.62100000
C      -46.32950000     -31.75140000     -73.11500000
C      -47.02070000     -31.49070000     -71.90640000
H      -48.49690000     -32.00540000     -70.41420000
H      -47.26460000     -34.98770000     -73.37600000
H      -45.62370000     -31.03490000     -73.52160000
H      -46.94470000     -30.42510000     -71.63790000
C      -45.63360000     -33.53240000     -74.84420000
H      -45.66960000     -32.73390000     -75.59270000
H      -46.03660000     -34.45410000     -75.29970000
C      -48.61310000     -34.78340000     -71.02190000
H      -49.41230000     -34.31350000     -70.51850000
H      -48.96000000     -35.54520000     -71.79470000
S      -43.89200000     -33.90010000     -74.51510000
S      -47.79200000     -35.75790000     -69.69580000
C      -43.90930000     -35.09570000     -73.14150000
H      -44.91140000     -35.04770000     -72.75900000
H      -43.69410000     -36.02870000     -73.64110000
C      -46.03650000     -35.96370000     -70.43180000
H      -46.00570000     -35.27690000     -71.18820000
H      -45.85550000     -36.93080000     -70.86560000
C      -44.92880000     -35.52070000     -69.44750000
H      -45.09410000     -35.88840000     -68.46240000
H      -43.95580000     -35.98870000     -69.71690000
C      -42.81810000     -34.63210000     -72.07390000
H      -41.94610000     -34.49950000     -72.68830000
H      -42.73220000     -35.36170000     -71.32140000
C      -43.17280000     -33.25990000     -71.46290000
C      -42.62400000     -32.07390000     -71.86680000
C      -43.89520000     -33.13890000     -70.20500000
H      -42.06750000     -31.83790000     -72.78410000
C      -44.03920000     -31.81370000     -69.87800000
C      -44.74510000     -34.01760000     -69.39690000
C      -45.37780000     -33.36820000     -68.33490000
S      -43.22330000     -30.74790000     -71.01270000
S      -45.10880000     -31.60870000     -68.46390000
H      -46.05910000     -33.64730000     -67.56230000
