40
Properties=species:S:1:pos:R:3 #=T CELL(abcABC):=T 1.889726e+02=T 90.00000=T Traj:=T positionsangstrom=T Step:=T 0=T Bead:=T pbc="F F F"
C      -49.44090000     -34.15730000     -71.29780000
C      -48.24750000     -34.83720000     -71.06570000
C      -47.43970000     -35.20980000     -72.13130000
C      -47.79260000     -34.89630000     -73.45660000
C      -49.01410000     -34.20560000     -73.67240000
C      -49.77920000     -33.83850000     -72.59260000
H      -50.09720000     -34.08440000     -70.53200000
H      -46.63050000     -35.88950000     -71.87930000
H      -49.34340000     -33.86970000     -74.63890000
H      -50.74810000     -33.34310000     -72.67190000
C      -46.85060000     -35.15830000     -74.62990000
H      -47.40870000     -34.83760000     -75.49940000
H      -46.49640000     -36.15920000     -74.78350000
C      -48.02190000     -35.42270000     -69.62500000
H      -48.92840000     -36.02830000     -69.42350000
H      -47.11540000     -35.99660000     -69.71560000
S      -45.25650000     -34.09940000     -74.62130000
S      -47.73660000     -34.12550000     -68.35570000
C      -45.68340000     -32.52090000     -73.89470000
H      -45.18780000     -31.76990000     -74.43640000
H      -46.82210000     -32.41730000     -73.81880000
C      -46.37650000     -33.17570000     -69.16380000
H      -46.15020000     -32.47160000     -68.31730000
H      -46.62320000     -32.65970000     -70.10990000
C      -45.11240000     -33.98040000     -69.37850000
H      -44.95560000     -34.67470000     -68.58860000
H      -45.28990000     -34.55190000     -70.33040000
C      -45.32340000     -32.41290000     -72.38090000
H      -45.83250000     -33.23460000     -71.88010000
H      -45.80620000     -31.50550000     -71.94410000
C      -43.92900000     -32.17180000     -71.93090000
C      -42.93770000     -31.53770000     -72.71080000
C      -43.36130000     -32.48570000     -70.63030000
H      -42.97400000     -31.05940000     -73.65330000
C      -42.07650000     -32.07040000     -70.43170000
C      -43.84730000     -33.20560000     -69.45280000
C      -42.91480000     -33.17490000     -68.43000000
S      -41.40340000     -31.30010000     -71.83420000
S      -41.35460000     -32.42760000     -68.87810000
H      -42.99520000     -33.59150000     -67.45370000
