40
Properties=species:S:1:pos:R:3 #=T CELL(abcABC):=T 1.889726e+02=T 90.00000=T Traj:=T positionsangstrom=T Step:=T 0=T Bead:=T pbc="F F F"
C      -47.99450000     -32.28710000     -71.31610000
C      -47.95680000     -33.64310000     -71.74260000
C      -47.28440000     -34.07720000     -72.90500000
C      -46.52160000     -33.12570000     -73.65660000
C      -46.46590000     -31.79650000     -73.17240000
C      -47.24480000     -31.40600000     -72.07060000
H      -48.54990000     -32.00980000     -70.38280000
H      -47.23770000     -35.15290000     -73.17270000
H      -45.97040000     -31.00960000     -73.75190000
H      -47.16380000     -30.37030000     -71.82490000
C      -45.64710000     -33.59780000     -74.84640000
H      -45.75180000     -32.99670000     -75.74160000
H      -45.99250000     -34.66240000     -75.06890000
C      -48.76340000     -34.67410000     -70.97510000
H      -49.65230000     -34.22370000     -70.52830000
H      -49.14990000     -35.49000000     -71.60750000
S      -43.80090000     -33.72630000     -74.47060000
S      -47.80090000     -35.57850000     -69.71580000
C      -43.65340000     -35.00420000     -73.14000000
H      -44.63990000     -35.23870000     -72.77080000
H      -43.39440000     -36.05270000     -73.53190000
C      -46.18780000     -36.02400000     -70.43910000
H      -46.10620000     -35.66570000     -71.50030000
H      -46.09280000     -37.18340000     -70.44550000
C      -45.08380000     -35.52280000     -69.49700000
H      -45.20000000     -35.85340000     -68.48730000
H      -44.21020000     -36.04770000     -69.90240000
C      -42.67490000     -34.69340000     -72.02740000
H      -41.60730000     -34.64290000     -72.42620000
H      -42.61650000     -35.59360000     -71.32550000
C      -42.95020000     -33.43620000     -71.30560000
C      -42.34590000     -32.29630000     -71.75080000
C      -43.94410000     -33.25280000     -70.26400000
H      -41.78210000     -32.19360000     -72.65560000
C      -44.06040000     -31.88060000     -69.92810000
C      -44.81810000     -34.06840000     -69.38890000
C      -45.43630000     -33.27710000     -68.40180000
S      -43.02120000     -30.91190000     -70.87270000
S      -45.11290000     -31.57490000     -68.55120000
H      -46.13970000     -33.63090000     -67.64040000
