40
Properties=species:S:1:pos:R:3 #=T CELL(abcABC):=T 1.889726e+02=T 90.00000=T Traj:=T positionsangstrom=T Step:=T 0=T Bead:=T pbc="F F F"
C      -49.51640000     -34.10320000     -71.23060000
C      -48.38110000     -34.98310000     -70.96870000
C      -47.63490000     -35.36630000     -72.08440000
C      -47.83830000     -34.89940000     -73.37810000
C      -48.73990000     -33.85450000     -73.53320000
C      -49.64360000     -33.49820000     -72.48340000
H      -50.08580000     -33.71860000     -70.48610000
H      -46.86140000     -36.01070000     -71.87170000
H      -48.95510000     -33.34850000     -74.44590000
H      -50.32870000     -32.68930000     -72.65360000
C      -46.91040000     -35.23140000     -74.50450000
H      -47.41390000     -35.17430000     -75.51920000
H      -46.47540000     -36.24260000     -74.32100000
C      -48.02070000     -35.51450000     -69.63240000
H      -48.78630000     -36.05430000     -69.02380000
H      -47.22050000     -36.26460000     -69.62950000
S      -45.29830000     -34.24430000     -74.57550000
S      -47.77930000     -34.04720000     -68.45540000
C      -45.65340000     -32.62020000     -73.80320000
H      -45.01110000     -32.00090000     -74.40150000
H      -46.61810000     -32.26840000     -74.09720000
C      -46.23980000     -33.10910000     -68.99120000
H      -46.12730000     -32.32140000     -68.20670000
H      -46.43500000     -32.53410000     -69.87820000
C      -45.05840000     -34.03590000     -69.24510000
H      -44.88970000     -34.70910000     -68.38610000
H      -45.29810000     -34.61070000     -70.08970000
C      -45.36850000     -32.51880000     -72.28450000
H      -45.66260000     -33.52910000     -71.79120000
H      -45.98970000     -31.71000000     -71.97320000
C      -43.91060000     -32.25590000     -71.95480000
C      -43.02650000     -31.56830000     -72.77430000
C      -43.31420000     -32.54540000     -70.69730000
H      -43.07190000     -31.24430000     -73.83090000
C      -42.02550000     -32.05780000     -70.54110000
C      -43.78290000     -33.23920000     -69.49630000
C      -42.82120000     -33.20770000     -68.49380000
S      -41.44550000     -31.31590000     -72.03690000
S      -41.36560000     -32.29480000     -68.96230000
H      -42.92550000     -33.56410000     -67.50800000
