40
Properties=species:S:1:pos:R:3 #=T CELL(abcABC):=T 1.889726e+02=T 90.00000=T Traj:=T positionsangstrom=T Step:=T 0=T Bead:=T pbc="F F F"
C      -47.51230000     -32.58550000     -71.04010000
C      -47.75040000     -33.78970000     -71.67900000
C      -47.18880000     -34.09630000     -72.97060000
C      -46.36710000     -33.15510000     -73.58740000
C      -46.16560000     -31.88890000     -72.95430000
C      -46.78060000     -31.61540000     -71.74200000
H      -47.87330000     -32.44990000     -70.05040000
H      -47.41520000     -35.03610000     -73.50240000
H      -45.56860000     -31.16910000     -73.49860000
H      -46.62300000     -30.65260000     -71.20760000
C      -45.67890000     -33.46070000     -74.91070000
H      -45.65590000     -32.55940000     -75.55240000
H      -46.21480000     -34.21900000     -75.48600000
C      -48.54720000     -34.90390000     -71.09090000
H      -49.45580000     -34.42520000     -70.65450000
H      -48.90000000     -35.60140000     -71.85360000
S      -43.86900000     -33.92790000     -74.73640000
S      -47.68530000     -35.72120000     -69.74630000
C      -43.89870000     -35.04900000     -73.29350000
H      -44.96560000     -35.20430000     -72.98340000
H      -43.37220000     -36.00260000     -73.49540000
C      -45.90990000     -36.06620000     -70.21240000
H      -45.79020000     -35.69450000     -71.25930000
H      -45.78060000     -37.16690000     -70.23430000
C      -44.86630000     -35.47040000     -69.36350000
H      -45.00680000     -35.83700000     -68.27560000
H      -43.88160000     -35.75070000     -69.75460000
C      -43.01130000     -34.57870000     -72.13780000
H      -41.96790000     -34.39010000     -72.50870000
H      -42.85740000     -35.40310000     -71.41430000
C      -43.38930000     -33.25750000     -71.50180000
C      -42.88140000     -32.09580000     -71.96530000
C      -44.18380000     -33.11700000     -70.27570000
H      -42.19050000     -32.11450000     -72.77980000
C      -44.22480000     -31.76130000     -69.93930000
C      -44.82250000     -33.98080000     -69.30560000
C      -45.36530000     -33.21380000     -68.25860000
S      -43.37620000     -30.67380000     -70.97630000
S      -45.04290000     -31.48700000     -68.39930000
H      -46.01060000     -33.48340000     -67.49840000
