40
Properties=species:S:1:pos:R:3 #=T CELL(abcABC):=T 1.889726e+02=T 90.00000=T Traj:=T positionsangstrom=T Step:=T 0=T Bead:=T pbc="F F F"
C      -45.84540000     -30.70160000     -68.19680000
C      -44.71970000     -31.14810000     -68.86730000
C      -44.35560000     -32.50850000     -68.79370000
C      -45.08930000     -33.37770000     -67.95670000
C      -46.22910000     -32.91130000     -67.28680000
C      -46.57420000     -31.57040000     -67.43380000
H      -46.15380000     -29.64420000     -68.23530000
H      -43.35530000     -32.87850000     -69.16650000
H      -46.80680000     -33.56380000     -66.69140000
H      -47.37140000     -31.18370000     -66.79760000
C      -44.70250000     -34.81170000     -67.72020000
H      -44.45290000     -35.10300000     -66.69910000
H      -43.86470000     -35.16820000     -68.28890000
C      -43.77170000     -30.23510000     -69.61370000
H      -43.49440000     -29.39930000     -68.96690000
H      -42.89270000     -30.79570000     -69.90770000
S      -46.16550000     -35.96630000     -68.26580000
S      -44.72740000     -29.39310000     -70.97620000
C      -45.86320000     -36.21360000     -70.00930000
H      -45.14570000     -36.98280000     -70.23130000
H      -46.85010000     -36.58620000     -70.32620000
C      -44.70720000     -30.62240000     -72.35330000
H      -43.71320000     -31.03180000     -72.32330000
H      -44.91110000     -29.98150000     -73.23820000
C      -45.81810000     -31.81010000     -72.40440000
H      -45.92810000     -32.35620000     -71.45890000
H      -46.76560000     -31.25690000     -72.55840000
C      -45.61860000     -34.90710000     -70.80630000
H      -44.69430000     -34.49690000     -70.39560000
H      -46.34150000     -34.16150000     -70.45000000
C      -45.53970000     -35.15870000     -72.33410000
C      -45.40830000     -36.46050000     -72.84430000
C      -45.51590000     -34.17070000     -73.39550000
H      -45.48200000     -37.44020000     -72.29210000
C      -45.33630000     -34.76970000     -74.64770000
C      -45.57000000     -32.71850000     -73.50890000
C      -45.32730000     -32.24230000     -74.78760000
S      -45.18570000     -36.47670000     -74.55360000
S      -45.03690000     -33.62790000     -75.93930000
H      -45.38360000     -31.20960000     -75.12760000
