40
Properties=species:S:1:pos:R:3 #=T CELL(abcABC):=T 1.889726e+02=T 90.00000=T Traj:=T positionsangstrom=T Step:=T 0=T Bead:=T pbc="F F F"
C      -46.99760000     -33.43110000     -75.08240000
C      -46.09240000     -34.32000000     -74.51150000
C      -44.85930000     -33.80450000     -74.17290000
C      -44.44630000     -32.48090000     -74.48410000
C      -45.37150000     -31.60770000     -74.96560000
C      -46.64870000     -32.08190000     -75.25110000
H      -47.98470000     -33.81990000     -75.34820000
H      -44.23120000     -34.46020000     -73.57860000
H      -45.24700000     -30.52980000     -75.01310000
H      -47.35780000     -31.37200000     -75.58450000
C      -42.94400000     -32.13970000     -74.21730000
H      -42.74320000     -31.05920000     -74.31960000
H      -42.31340000     -32.52430000     -74.95690000
C      -46.35550000     -35.80130000     -74.50060000
H      -47.41520000     -36.02740000     -74.48530000
H      -45.92450000     -36.24240000     -75.41270000
S      -42.28040000     -32.80920000     -72.64740000
S      -45.61360000     -36.66400000     -73.03180000
C      -43.45820000     -32.07900000     -71.44740000
H      -43.26240000     -31.06110000     -71.39970000
H      -44.49880000     -32.22090000     -71.76900000
C      -46.45570000     -35.85860000     -71.62030000
H      -46.83220000     -36.64610000     -70.93410000
H      -47.28740000     -35.27070000     -71.95950000
C      -45.52250000     -34.96960000     -70.80240000
H      -44.64630000     -35.47770000     -70.30410000
H      -45.05870000     -34.32370000     -71.44610000
C      -43.11910000     -32.71900000     -70.07870000
H      -42.15720000     -32.43790000     -69.65150000
H      -43.07330000     -33.81830000     -70.15660000
C      -44.20890000     -32.44560000     -69.02480000
C      -43.96940000     -31.63900000     -67.97570000
C      -45.50490000     -33.05390000     -68.97240000
H      -43.04550000     -31.11210000     -67.77540000
C      -46.23780000     -32.59270000     -67.88090000
C      -46.18210000     -34.07060000     -69.74190000
C      -47.45050000     -34.20990000     -69.27380000
S      -45.42510000     -31.36920000     -66.96030000
S      -47.93990000     -33.18780000     -67.93700000
H      -47.95760000     -35.09860000     -69.66800000
