40
Properties=species:S:1:pos:R:3 #=T CELL(abcABC):=T 1.889726e+02=T 90.00000=T Traj:=T positionsangstrom=T Step:=T 0=T Bead:=T pbc="F F F"
C      -47.99880000     -32.50250000     -71.35670000
C      -48.02130000     -33.78270000     -71.97410000
C      -47.20640000     -34.06900000     -73.09400000
C      -46.40190000     -33.06160000     -73.62400000
C      -46.40690000     -31.77500000     -73.10300000
C      -47.22290000     -31.50910000     -71.98620000
H      -48.60660000     -32.27200000     -70.52320000
H      -47.26930000     -35.05170000     -73.66470000
H      -45.77480000     -30.98470000     -73.46920000
H      -47.29890000     -30.44470000     -71.64780000
C      -45.48380000     -33.34240000     -74.79640000
H      -45.50420000     -32.59820000     -75.54710000
H      -45.85120000     -34.22170000     -75.26130000
C      -48.91040000     -34.80400000     -71.22450000
H      -49.84360000     -34.41010000     -70.84610000
H      -49.10210000     -35.67290000     -71.91430000
S      -43.77100000     -33.60610000     -74.32520000
S      -48.11440000     -35.45050000     -69.63600000
C      -43.83860000     -34.96660000     -73.22340000
H      -44.84760000     -35.06330000     -72.82740000
H      -43.64790000     -35.91790000     -73.74910000
C      -46.52490000     -36.05820000     -70.36260000
H      -46.49420000     -35.95870000     -71.39560000
H      -46.38530000     -37.15170000     -70.22990000
C      -45.27080000     -35.51600000     -69.59500000
H      -45.28610000     -36.16860000     -68.65550000
H      -44.28420000     -35.88300000     -70.09980000
C      -42.78620000     -34.81480000     -72.05790000
H      -41.76920000     -34.84270000     -72.47250000
H      -42.89020000     -35.68970000     -71.40200000
C      -42.93820000     -33.52990000     -71.21120000
C      -42.12100000     -32.50310000     -71.56470000
C      -43.95260000     -33.29950000     -70.23280000
H      -41.41850000     -32.39490000     -72.42210000
C      -43.89840000     -31.92760000     -69.88990000
C      -45.04930000     -33.97890000     -69.54690000
C      -45.69170000     -33.07090000     -68.69590000
S      -42.43180000     -31.09520000     -70.59590000
S      -45.10840000     -31.47130000     -68.73880000
H      -46.62260000     -33.30480000     -68.15690000
