40
Properties=species:S:1:pos:R:3 #=T CELL(abcABC):=T 1.889726e+02=T 90.00000=T Traj:=T positionsangstrom=T Step:=T 0=T Bead:=T pbc="F F F"
C      -45.90320000     -30.61850000     -68.19440000
C      -44.66510000     -31.01570000     -68.78520000
C      -44.25220000     -32.38310000     -68.55270000
C      -45.00340000     -33.31230000     -67.78740000
C      -46.26430000     -32.85110000     -67.33840000
C      -46.68640000     -31.51180000     -67.48460000
H      -46.25160000     -29.59880000     -68.31480000
H      -43.35730000     -32.76730000     -69.00030000
H      -46.96530000     -33.59170000     -66.86150000
H      -47.69550000     -31.30400000     -67.15920000
C      -44.58880000     -34.77700000     -67.79920000
H      -44.36920000     -35.05200000     -66.75540000
H      -43.72000000     -34.84710000     -68.47140000
C      -43.94850000     -30.11800000     -69.78770000
H      -43.41290000     -29.26430000     -69.29830000
H      -43.15760000     -30.66290000     -70.30730000
S      -45.99020000     -35.98720000     -68.19390000
S      -45.12870000     -29.39340000     -70.96810000
C      -45.78070000     -36.27970000     -70.05910000
H      -44.80970000     -36.79310000     -70.21290000
H      -46.51040000     -37.12350000     -70.23480000
C      -44.75910000     -30.54100000     -72.42030000
H      -43.69620000     -30.64580000     -72.64860000
H      -45.07920000     -30.09090000     -73.38400000
C      -45.43550000     -31.96150000     -72.19760000
H      -44.86580000     -32.53700000     -71.47240000
H      -46.50280000     -32.04220000     -71.86470000
C      -45.89780000     -35.00650000     -70.90280000
H      -45.21570000     -34.23160000     -70.52980000
H      -46.92510000     -34.57600000     -70.89220000
C      -45.48160000     -35.28680000     -72.38230000
C      -45.52400000     -36.54820000     -72.95170000
C      -45.29680000     -34.24270000     -73.37050000
H      -45.59340000     -37.47620000     -72.45770000
C      -45.06270000     -34.78700000     -74.62920000
C      -45.24530000     -32.80640000     -73.38120000
C      -45.19760000     -32.33390000     -74.65390000
S      -45.32530000     -36.47420000     -74.74360000
S      -45.04850000     -33.56890000     -75.87980000
H      -45.38290000     -31.40270000     -75.05300000
