40
Properties=species:S:1:pos:R:3 #=T CELL(abcABC):=T 1.889726e+02=T 90.00000=T Traj:=T positionsangstrom=T Step:=T 0=T Bead:=T pbc="F F F"
C      -47.30600000     -32.02800000     -71.82610000
C      -47.58300000     -33.37270000     -72.18060000
C      -46.92420000     -33.97290000     -73.28440000
C      -45.88810000     -33.31110000     -73.93410000
C      -45.56330000     -31.97340000     -73.54830000
C      -46.30270000     -31.36060000     -72.57380000
H      -47.82890000     -31.51100000     -71.00730000
H      -47.11160000     -35.05480000     -73.43740000
H      -44.77520000     -31.33620000     -73.93900000
H      -46.04980000     -30.34230000     -72.17480000
C      -45.16940000     -34.02040000     -75.03560000
H      -44.90780000     -33.40330000     -75.96060000
H      -45.81870000     -34.84780000     -75.52580000
C      -48.59760000     -34.19830000     -71.54390000
H      -49.55620000     -33.66570000     -71.44910000
H      -48.83220000     -35.12080000     -72.18550000
S      -43.58730000     -34.76910000     -74.45030000
S      -48.17980000     -34.69540000     -69.78660000
C      -43.93100000     -35.50590000     -72.81790000
H      -44.98840000     -35.49970000     -72.61850000
H      -43.75730000     -36.60440000     -73.03420000
C      -46.62280000     -35.63170000     -70.04730000
H      -46.19780000     -35.52180000     -71.03330000
H      -46.85080000     -36.69870000     -70.00450000
C      -45.55020000     -35.38950000     -68.93600000
H      -45.92070000     -35.55490000     -67.92990000
H      -44.76350000     -36.04190000     -69.23360000
C      -43.09430000     -34.98570000     -71.58440000
H      -41.99680000     -34.99640000     -71.75150000
H      -43.11200000     -35.66790000     -70.65450000
C      -43.44290000     -33.61550000     -71.14400000
C      -42.78710000     -32.49780000     -71.71390000
C      -44.25240000     -33.21590000     -70.00360000
H      -42.18700000     -32.47090000     -72.58720000
C      -44.30330000     -31.80010000     -69.82100000
C      -45.10020000     -33.93250000     -69.03680000
C      -45.62090000     -33.07760000     -68.08670000
S      -43.21080000     -30.97120000     -70.91360000
S      -45.13780000     -31.42960000     -68.37870000
H      -46.36050000     -33.40530000     -67.34780000
