40
Properties=species:S:1:pos:R:3 #=T CELL(abcABC):=T 1.889726e+02=T 90.00000=T Traj:=T positionsangstrom=T Step:=T 0=T Bead:=T pbc="F F F"
C      -47.82790000     -32.44720000     -71.26500000
C      -48.00100000     -33.70530000     -71.90090000
C      -47.20810000     -33.94540000     -73.09700000
C      -46.41230000     -32.99790000     -73.63750000
C      -46.36080000     -31.65900000     -73.04650000
C      -47.09020000     -31.42360000     -71.91980000
H      -48.37770000     -32.27590000     -70.31530000
H      -47.40420000     -34.93460000     -73.57420000
H      -45.75370000     -30.83960000     -73.55110000
H      -47.00400000     -30.52700000     -71.40220000
C      -45.60930000     -33.43590000     -74.83900000
H      -45.54600000     -32.61830000     -75.55470000
H      -46.08310000     -34.34150000     -75.32960000
C      -48.83460000     -34.79940000     -71.36240000
H      -49.74760000     -34.39460000     -70.95610000
H      -49.10600000     -35.51910000     -72.09710000
S      -43.81770000     -33.69490000     -74.31990000
S      -48.05250000     -35.64150000     -69.84150000
C      -44.01330000     -35.07140000     -73.10480000
H      -45.04780000     -35.10160000     -72.80930000
H      -43.76240000     -36.06360000     -73.58010000
C      -46.32360000     -35.96640000     -70.42770000
H      -46.34870000     -35.48760000     -71.43890000
H      -46.15450000     -37.07570000     -70.48990000
C      -45.35070000     -35.41300000     -69.37160000
H      -45.67540000     -35.65740000     -68.36330000
H      -44.37590000     -35.89330000     -69.46920000
C      -42.97390000     -34.96150000     -71.91830000
H      -41.95560000     -35.17550000     -72.36040000
H      -43.09620000     -35.83920000     -71.24140000
C      -42.96980000     -33.61120000     -71.19430000
C      -42.07260000     -32.62650000     -71.48890000
C      -43.96980000     -33.25490000     -70.16340000
H      -41.32680000     -32.72070000     -72.29170000
C      -43.87380000     -31.87530000     -69.90990000
C      -45.09290000     -33.93470000     -69.41500000
C      -45.84060000     -32.95160000     -68.77280000
S      -42.45360000     -31.11660000     -70.65700000
S      -45.04670000     -31.34160000     -68.78150000
H      -46.67990000     -33.25440000     -68.18030000
