40
Properties=species:S:1:pos:R:3 #=T CELL(abcABC):=T 1.889726e+02=T 90.00000=T Traj:=T positionsangstrom=T Step:=T 0=T Bead:=T pbc="F F F"
C      -46.97670000     -33.54110000     -74.87800000
C      -45.97040000     -34.48940000     -74.69490000
C      -44.63670000     -33.95150000     -74.44410000
C      -44.37300000     -32.56220000     -74.48770000
C      -45.45670000     -31.71050000     -74.71710000
C      -46.74540000     -32.16380000     -74.93380000
H      -47.92950000     -33.97890000     -75.06010000
H      -43.81220000     -34.65780000     -74.32770000
H      -45.27330000     -30.61260000     -74.76860000
H      -47.54630000     -31.53480000     -75.17420000
C      -42.98490000     -31.98400000     -74.23780000
H      -43.02300000     -30.86480000     -74.26460000
H      -42.38300000     -32.38200000     -75.04160000
C      -46.35560000     -35.92300000     -74.56760000
H      -47.43420000     -36.05000000     -74.55510000
H      -45.90850000     -36.58500000     -75.35710000
S      -42.10880000     -32.53550000     -72.68940000
S      -45.74960000     -36.69300000     -73.00060000
C      -43.23300000     -32.11790000     -71.32800000
H      -43.00700000     -31.03320000     -71.00540000
H      -44.27990000     -32.00690000     -71.62890000
C      -46.65890000     -35.62540000     -71.75300000
H      -47.24410000     -36.30760000     -71.18320000
H      -47.42290000     -34.99270000     -72.27420000
C      -45.64450000     -34.85550000     -70.90260000
H      -44.82590000     -35.57970000     -70.62680000
H      -45.18550000     -34.07020000     -71.55270000
C      -43.07470000     -32.89650000     -70.01660000
H      -42.08980000     -32.71430000     -69.62670000
H      -43.14370000     -33.98190000     -70.20510000
C      -44.20530000     -32.45560000     -69.07600000
C      -44.02460000     -31.57310000     -68.09170000
C      -45.55170000     -33.03280000     -69.02670000
H      -43.09060000     -31.09280000     -67.84650000
C      -46.30060000     -32.57540000     -67.93090000
C      -46.26010000     -34.06480000     -69.74920000
C      -47.52400000     -34.29200000     -69.22620000
S      -45.39200000     -31.38590000     -66.99820000
S      -47.92970000     -33.22070000     -67.85620000
H      -48.13160000     -35.19060000     -69.59160000
