40
Properties=species:S:1:pos:R:3 #=T CELL(abcABC):=T 1.889726e+02=T 90.00000=T Traj:=T positionsangstrom=T Step:=T 0=T Bead:=T pbc="F F F"
C      -47.45580000     -32.19650000     -71.69730000
C      -47.66220000     -33.43550000     -72.32900000
C      -46.86590000     -33.73250000     -73.43220000
C      -45.78220000     -32.86490000     -73.72080000
C      -45.50750000     -31.71920000     -72.98350000
C      -46.44270000     -31.29770000     -72.04740000
H      -48.09110000     -31.93440000     -70.90200000
H      -47.08250000     -34.61100000     -74.05510000
H      -44.66770000     -31.15580000     -73.20320000
H      -46.29600000     -30.36810000     -71.48290000
C      -44.87910000     -33.43410000     -74.83210000
H      -44.52340000     -32.72240000     -75.48650000
H      -45.43640000     -34.25120000     -75.28460000
C      -48.75720000     -34.35480000     -71.82890000
H      -49.57490000     -33.68610000     -71.64880000
H      -49.01050000     -35.01850000     -72.64680000
S      -43.32750000     -34.08330000     -74.10730000
S      -48.49980000     -35.35990000     -70.31000000
C      -43.86180000     -35.29920000     -72.69980000
H      -44.93090000     -35.04460000     -72.51960000
H      -43.82410000     -36.34760000     -73.06120000
C      -46.72600000     -35.85940000     -70.51280000
H      -46.42600000     -35.41460000     -71.44020000
H      -46.71010000     -36.92930000     -70.50530000
C      -45.85400000     -35.45340000     -69.32510000
H      -46.39820000     -35.62820000     -68.44530000
H      -44.98580000     -36.14580000     -69.17660000
C      -42.98990000     -35.11690000     -71.50200000
H      -41.95160000     -35.19440000     -71.90490000
H      -43.09630000     -35.92430000     -70.80310000
C      -43.15840000     -33.72610000     -70.95330000
C      -42.32010000     -32.71920000     -71.33020000
C      -44.30010000     -33.30610000     -70.03250000
H      -41.42470000     -32.64120000     -71.99190000
C      -44.20600000     -31.98980000     -69.78070000
C      -45.30890000     -33.99540000     -69.23930000
C      -46.01080000     -33.02920000     -68.54740000
S      -42.79300000     -31.18360000     -70.49860000
S      -45.46400000     -31.42060000     -68.71040000
H      -46.99810000     -33.21990000     -68.09040000
