40
Properties=species:S:1:pos:R:3 #=T CELL(abcABC):=T 1.889726e+02=T 90.00000=T Traj:=T positionsangstrom=T Step:=T 0=T Bead:=T pbc="F F F"
C      -47.20000000     -32.07620000     -72.01560000
C      -47.48820000     -33.39970000     -72.28930000
C      -46.85430000     -33.97640000     -73.37460000
C      -45.80480000     -33.36900000     -74.03060000
C      -45.53880000     -31.99600000     -73.74730000
C      -46.28480000     -31.39040000     -72.78770000
H      -47.72980000     -31.64080000     -71.12820000
H      -47.02460000     -35.04290000     -73.51520000
H      -44.82570000     -31.39270000     -74.23260000
H      -46.18820000     -30.31790000     -72.61340000
C      -44.94620000     -34.08280000     -74.95080000
H      -44.84380000     -33.45010000     -75.89430000
H      -45.42630000     -35.08190000     -75.18590000
C      -48.58310000     -34.03330000     -71.46820000
H      -49.34170000     -33.29100000     -71.15740000
H      -49.23060000     -34.78580000     -72.06760000
S      -43.20910000     -34.33370000     -74.24700000
S      -48.17400000     -35.04600000     -69.91340000
C      -43.64040000     -35.36700000     -72.72460000
H      -44.70120000     -35.45310000     -72.53820000
H      -43.23360000     -36.38050000     -72.92020000
C      -46.58380000     -35.88290000     -70.35590000
H      -46.19050000     -35.76780000     -71.37730000
H      -46.78380000     -36.92510000     -70.41110000
C      -45.50580000     -35.55120000     -69.27630000
H      -45.79940000     -35.88240000     -68.28040000
H      -44.53700000     -35.94980000     -69.61980000
C      -42.80780000     -34.83140000     -71.54330000
H      -41.76790000     -34.71460000     -71.85440000
H      -42.68990000     -35.58520000     -70.75610000
C      -43.31060000     -33.44210000     -70.99980000
C      -42.81990000     -32.26860000     -71.47840000
C      -44.30860000     -33.18370000     -69.96170000
H      -42.03830000     -32.08760000     -72.25710000
C      -44.50900000     -31.88150000     -69.68940000
C      -45.28560000     -34.05320000     -69.19070000
C      -45.90760000     -33.30880000     -68.23580000
S      -43.41980000     -30.87320000     -70.60810000
S      -45.62200000     -31.54530000     -68.33850000
H      -46.69370000     -33.69020000     -67.56610000
