40
Properties=species:S:1:pos:R:3 #=T CELL(abcABC):=T 1.889726e+02=T 90.00000=T Traj:=T positionsangstrom=T Step:=T 0=T Bead:=T pbc="F F F"
C      -47.50350000     -32.16680000     -71.79190000
C      -47.69370000     -33.49210000     -72.26400000
C      -46.79260000     -33.89640000     -73.29930000
C      -45.73560000     -33.09640000     -73.73250000
C      -45.61970000     -31.81340000     -73.22470000
C      -46.40830000     -31.35580000     -72.17900000
H      -48.19620000     -31.72760000     -71.10540000
H      -46.87820000     -34.88240000     -73.74240000
H      -44.78970000     -31.14280000     -73.60120000
H      -46.34400000     -30.39560000     -71.76240000
C      -44.79810000     -33.53960000     -74.80710000
H      -44.45950000     -32.71240000     -75.39390000
H      -45.23450000     -34.14110000     -75.52790000
C      -48.64360000     -34.42130000     -71.72380000
H      -49.71960000     -34.00270000     -71.68270000
H      -48.68110000     -35.30490000     -72.40270000
S      -43.17810000     -34.31800000     -74.24700000
S      -48.19630000     -35.00460000     -69.97890000
C      -43.53180000     -35.39160000     -72.89300000
H      -44.63280000     -35.38710000     -72.83370000
H      -43.23570000     -36.40410000     -73.07320000
C      -46.62220000     -35.82800000     -70.45530000
H      -46.33910000     -35.41260000     -71.42910000
H      -46.69500000     -36.92290000     -70.63420000
C      -45.49480000     -35.55770000     -69.45640000
H      -45.67080000     -35.93410000     -68.38490000
H      -44.56300000     -36.03440000     -69.80520000
C      -42.94270000     -34.87500000     -71.59000000
H      -41.87500000     -34.78160000     -71.81600000
H      -43.17510000     -35.60790000     -70.76280000
C      -43.39880000     -33.52010000     -71.12380000
C      -42.75430000     -32.37830000     -71.54520000
C      -44.35490000     -33.32480000     -70.09850000
H      -41.92250000     -32.36700000     -72.22280000
C      -44.35670000     -31.93760000     -69.67170000
C      -45.27750000     -34.09100000     -69.33990000
C      -46.07030000     -33.31770000     -68.50330000
S      -43.24780000     -30.93200000     -70.53410000
S      -45.56700000     -31.59780000     -68.48630000
H      -46.74730000     -33.63210000     -67.77070000
