40
Properties=species:S:1:pos:R:3 #=T CELL(abcABC):=T 1.889726e+02=T 90.00000=T Traj:=T positionsangstrom=T Step:=T 0=T Bead:=T pbc="F F F"
C      -47.92050000     -32.09900000     -72.08360000
C      -47.94820000     -33.43710000     -72.55680000
C      -46.91140000     -33.81000000     -73.43970000
C      -45.86320000     -32.96560000     -73.83340000
C      -45.91470000     -31.63110000     -73.40160000
C      -46.87880000     -31.22610000     -72.51370000
H      -48.62990000     -31.80610000     -71.28620000
H      -46.86030000     -34.80620000     -73.85870000
H      -45.08980000     -30.95250000     -73.53140000
H      -46.90160000     -30.18180000     -72.20650000
C      -44.78380000     -33.58900000     -74.65780000
H      -44.53880000     -32.96230000     -75.59010000
H      -45.19810000     -34.50020000     -75.07500000
C      -49.03420000     -34.35700000     -72.12110000
H      -50.01550000     -33.89250000     -71.94560000
H      -49.12520000     -35.17730000     -72.89120000
S      -43.20930000     -33.85720000     -73.73080000
S      -48.59470000     -35.18090000     -70.45750000
C      -43.57100000     -35.29390000     -72.62870000
H      -44.71170000     -35.22400000     -72.40670000
H      -43.41270000     -36.28100000     -73.16190000
C      -46.88770000     -35.70440000     -70.79550000
H      -46.49770000     -35.23920000     -71.76330000
H      -46.97370000     -36.83560000     -70.86540000
C      -45.93190000     -35.34260000     -69.72550000
H      -46.23830000     -35.55600000     -68.65590000
H      -45.06040000     -35.99160000     -69.89630000
C      -42.83550000     -35.27900000     -71.27040000
H      -41.76620000     -35.42700000     -71.50580000
H      -43.21830000     -36.15880000     -70.64080000
C      -43.03360000     -33.94620000     -70.64280000
C      -42.04510000     -32.98420000     -70.77180000
C      -44.16180000     -33.39190000     -69.92820000
H      -41.08240000     -33.01040000     -71.33690000
C      -43.91980000     -32.04610000     -69.50260000
C      -45.50070000     -33.89560000     -69.61050000
C      -46.24170000     -32.86640000     -69.02830000
S      -42.38860000     -31.45010000     -69.97730000
S      -45.37000000     -31.41090000     -68.73520000
H      -47.27700000     -32.95520000     -68.64030000
