40
Properties=species:S:1:pos:R:3 #=T CELL(abcABC):=T 1.889726e+02=T 90.00000=T Traj:=T positionsangstrom=T Step:=T 0=T Bead:=T pbc="F F F"
C      -46.93440000     -33.65250000     -74.84930000
C      -45.83960000     -34.56870000     -74.67820000
C      -44.53040000     -33.96730000     -74.45860000
C      -44.39470000     -32.59200000     -74.31350000
C      -45.53150000     -31.79660000     -74.44870000
C      -46.75810000     -32.30790000     -74.70430000
H      -47.91630000     -34.04620000     -74.97550000
H      -43.59000000     -34.61260000     -74.40580000
H      -45.27550000     -30.72740000     -74.46730000
H      -47.63040000     -31.63360000     -74.88510000
C      -42.99510000     -31.99180000     -74.24490000
H      -43.04620000     -30.89700000     -74.28970000
H      -42.37690000     -32.35310000     -75.12670000
C      -45.96070000     -36.06170000     -74.72470000
H      -46.78880000     -36.36100000     -75.39810000
H      -45.06730000     -36.46570000     -75.11480000
S      -42.12500000     -32.53930000     -72.63960000
S      -46.04530000     -36.75460000     -72.93630000
C      -43.27690000     -31.86280000     -71.31070000
H      -42.99520000     -30.80860000     -71.21460000
H      -44.23570000     -31.99560000     -71.68650000
C      -46.77560000     -35.47670000     -71.81810000
H      -47.28010000     -36.09250000     -71.05150000
H      -47.47090000     -34.79530000     -72.35310000
C      -45.68210000     -34.66050000     -71.08590000
H      -44.83580000     -35.27050000     -70.85850000
H      -45.42860000     -33.79810000     -71.79400000
C      -43.10600000     -32.79660000     -70.15060000
H      -42.06390000     -32.72260000     -69.73440000
H      -43.30520000     -33.83040000     -70.45570000
C      -44.13690000     -32.50270000     -69.06380000
C      -43.96180000     -31.60830000     -68.09160000
C      -45.46870000     -33.07930000     -69.02810000
H      -43.03200000     -31.09500000     -67.84960000
C      -46.23700000     -32.62910000     -67.93490000
C      -46.24750000     -34.00390000     -69.79810000
C      -47.56130000     -34.20250000     -69.35000000
S      -45.47400000     -31.29630000     -67.12130000
S      -47.78180000     -33.30980000     -67.80910000
H      -48.46210000     -34.70260000     -69.73830000
