40
Properties=species:S:1:pos:R:3 #=T CELL(abcABC):=T 1.889726e+02=T 90.00000=T Traj:=T positionsangstrom=T Step:=T 0=T Bead:=T pbc="F F F"
C      -45.81970000     -32.03810000     -75.57250000
C      -45.37310000     -31.52430000     -74.39280000
C      -46.34750000     -31.60370000     -73.29240000
C      -47.55150000     -32.38380000     -73.43370000
C      -47.88650000     -32.92220000     -74.65740000
C      -47.01790000     -32.72560000     -75.75210000
H      -45.37430000     -31.77420000     -76.51850000
H      -46.20180000     -31.19420000     -72.29840000
H      -48.81120000     -33.51700000     -74.75080000
H      -47.19630000     -33.08120000     -76.77360000
C      -48.69110000     -32.39930000     -72.42190000
H      -49.61960000     -32.01640000     -72.95550000
H      -48.45870000     -31.76810000     -71.53570000
C      -44.06790000     -30.85440000     -74.29440000
H      -43.59230000     -30.89510000     -75.21940000
H      -44.05570000     -29.84530000     -73.95280000
S      -48.87880000     -34.12520000     -71.74420000
S      -42.90500000     -31.67580000     -73.06810000
C      -47.65790000     -34.11280000     -70.32990000
H      -47.09330000     -33.24630000     -70.52320000
H      -48.22400000     -33.95410000     -69.44080000
C      -43.42200000     -33.42750000     -73.01220000
H      -42.48510000     -33.92690000     -73.06030000
H      -43.95200000     -33.58700000     -73.94560000
C      -44.35290000     -33.87320000     -71.94350000
H      -45.32480000     -33.42540000     -72.04900000
H      -44.50350000     -34.93000000     -72.07460000
C      -46.64010000     -35.36210000     -70.39730000
H      -46.29790000     -35.51760000     -71.49540000
H      -47.28190000     -36.25250000     -70.17300000
C      -45.58330000     -35.27130000     -69.38150000
C      -45.78620000     -35.81340000     -68.12480000
C      -44.43680000     -34.36020000     -69.41110000
H      -46.47720000     -36.62450000     -67.88560000
C      -43.82320000     -34.25570000     -68.15220000
C      -43.84620000     -33.64900000     -70.53570000
C      -42.81440000     -32.92390000     -70.02530000
S      -44.50650000     -35.29720000     -66.96900000
S      -42.47950000     -33.03770000     -68.32740000
H      -42.19660000     -32.25810000     -70.56420000
