40
Properties=species:S:1:pos:R:3 #=T CELL(abcABC):=T 1.889726e+02=T 90.00000=T Traj:=T positionsangstrom=T Step:=T 0=T Bead:=T pbc="F F F"
C      -45.24380000     -31.32660000     -69.57510000
C      -46.42700000     -31.56840000     -70.30170000
C      -46.47460000     -31.31540000     -71.69360000
C      -45.22310000     -31.01430000     -72.36880000
C      -44.05960000     -30.75000000     -71.64090000
C      -44.09710000     -30.95500000     -70.25920000
H      -45.26320000     -31.48360000     -68.50590000
H      -47.38390000     -31.41600000     -72.30740000
H      -43.17850000     -30.45050000     -72.19480000
H      -43.17770000     -30.64090000     -69.75330000
C      -45.28030000     -30.78700000     -73.80300000
H      -44.34640000     -30.91910000     -74.31430000
H      -45.72510000     -29.79450000     -74.06000000
C      -47.66370000     -31.68670000     -69.51200000
H      -47.51090000     -31.12060000     -68.52190000
H      -48.54430000     -31.37200000     -70.03480000
S      -46.45850000     -32.05780000     -74.57530000
S      -47.90210000     -33.49600000     -68.99560000
C      -45.24120000     -33.49330000     -74.80290000
H      -45.42500000     -33.94140000     -75.76120000
H      -44.24100000     -33.10860000     -74.76670000
C      -48.13960000     -34.23330000     -70.66240000
H      -47.83950000     -33.50510000     -71.42910000
H      -49.15110000     -34.56510000     -70.86010000
C      -47.27040000     -35.45810000     -70.96940000
H      -47.72190000     -36.23750000     -70.39730000
H      -47.34890000     -35.67410000     -72.07070000
C      -45.44140000     -34.49730000     -73.64050000
H      -45.46810000     -35.58650000     -74.04000000
H      -46.41900000     -34.23220000     -73.19210000
C      -44.35250000     -34.54570000     -72.64860000
C      -43.00830000     -34.34990000     -72.89330000
C      -44.65470000     -34.94030000     -71.25910000
H      -42.41760000     -34.14830000     -73.78020000
C      -43.54890000     -34.83940000     -70.45350000
C      -45.78640000     -35.36110000     -70.48150000
C      -45.47170000     -35.71010000     -69.19630000
S      -42.04720000     -34.43400000     -71.40760000
S      -43.75420000     -35.26700000     -68.83010000
H      -46.18640000     -35.81370000     -68.39940000
