40
Properties=species:S:1:pos:R:3 #=T CELL(abcABC):=T 1.889726e+02=T 90.00000=T Traj:=T positionsangstrom=T Step:=T 0=T Bead:=T pbc="F F F"
C      -45.44680000     -32.42890000     -75.64060000
C      -45.49690000     -31.61220000     -74.50050000
C      -46.65590000     -31.65760000     -73.76270000
C      -47.80310000     -32.46760000     -74.00080000
C      -47.69500000     -33.30570000     -75.11290000
C      -46.52190000     -33.26600000     -75.91070000
H      -44.63640000     -32.33300000     -76.29120000
H      -46.58430000     -31.06620000     -72.83110000
H      -48.60830000     -33.82520000     -75.45970000
H      -46.57740000     -33.85320000     -76.79180000
C      -49.01740000     -32.61410000     -73.00490000
H      -49.88390000     -32.80500000     -73.69730000
H      -49.16050000     -31.69920000     -72.37990000
C      -44.39790000     -30.71400000     -74.14470000
H      -43.59540000     -30.89310000     -74.84130000
H      -44.68550000     -29.70260000     -74.04450000
S      -48.80750000     -34.12930000     -72.02730000
S      -43.66080000     -31.27900000     -72.48000000
C      -47.41590000     -33.65260000     -70.89490000
H      -46.72970000     -33.04520000     -71.57010000
H      -47.62220000     -33.07370000     -70.02890000
C      -43.23840000     -33.00400000     -72.81510000
H      -42.16180000     -33.05750000     -72.82230000
H      -43.63130000     -33.12550000     -73.82720000
C      -43.84990000     -34.10230000     -71.88050000
H      -44.90620000     -33.88920000     -71.92470000
H      -43.59870000     -35.02280000     -72.40000000
C      -46.80030000     -34.96130000     -70.32600000
H      -46.28360000     -35.48970000     -71.09180000
H      -47.47820000     -35.65470000     -69.94570000
C      -45.70990000     -34.67700000     -69.25920000
C      -46.06990000     -34.90200000     -67.94770000
C      -44.30720000     -34.41200000     -69.35830000
H      -47.08510000     -35.04830000     -67.67520000
C      -43.73180000     -34.24300000     -68.11770000
C      -43.41020000     -34.10360000     -70.40850000
C      -42.14120000     -33.85610000     -69.88260000
S      -44.82610000     -34.63120000     -66.75960000
S      -42.08740000     -33.93150000     -68.06550000
H      -41.23310000     -33.75750000     -70.39650000
