40
Properties=species:S:1:pos:R:3 #=T CELL(abcABC):=T 1.889726e+02=T 90.00000=T Traj:=T positionsangstrom=T Step:=T 0=T Bead:=T pbc="F F F"
C      -45.66430000     -32.40930000     -75.57580000
C      -45.51210000     -31.69890000     -74.38380000
C      -46.49110000     -31.81000000     -73.40790000
C      -47.74310000     -32.37160000     -73.62640000
C      -47.88450000     -32.98210000     -74.90700000
C      -46.87850000     -33.02790000     -75.89460000
H      -44.75340000     -32.35280000     -76.20050000
H      -46.33120000     -31.35400000     -72.42500000
H      -48.77510000     -33.55880000     -75.15180000
H      -47.17820000     -33.34450000     -76.87580000
C      -48.81470000     -32.38740000     -72.64730000
H      -49.80510000     -32.42410000     -73.14160000
H      -48.69400000     -31.61330000     -71.85670000
C      -44.17890000     -30.83510000     -74.27640000
H      -43.60130000     -30.91800000     -75.22470000
H      -44.54900000     -29.84510000     -74.09610000
S      -48.76400000     -34.05890000     -71.79120000
S      -43.10300000     -31.18620000     -72.78140000
C      -47.39300000     -33.94200000     -70.56030000
H      -46.64600000     -33.21450000     -70.93390000
H      -47.87050000     -33.52070000     -69.71360000
C      -43.05050000     -33.15350000     -72.92570000
H      -42.05550000     -33.36260000     -72.62460000
H      -43.12890000     -33.39940000     -73.95720000
C      -44.06620000     -33.85110000     -72.02510000
H      -45.07770000     -33.46220000     -72.12640000
H      -44.11590000     -34.84830000     -72.46990000
C      -46.76090000     -35.26130000     -70.38410000
H      -46.41340000     -35.52970000     -71.30430000
H      -47.48370000     -35.97700000     -69.96210000
C      -45.69860000     -35.19670000     -69.33740000
C      -46.07520000     -35.50020000     -67.99520000
C      -44.44530000     -34.50950000     -69.43950000
H      -47.01620000     -35.95770000     -67.82580000
C      -43.87060000     -34.34360000     -68.20010000
C      -43.63140000     -33.96460000     -70.53710000
C      -42.40230000     -33.53550000     -70.04480000
S      -44.87150000     -34.89480000     -66.84760000
S      -42.30010000     -33.52270000     -68.25650000
H      -41.73750000     -32.92930000     -70.69920000
