40
Properties=species:S:1:pos:R:3 #=T CELL(abcABC):=T 1.889726e+02=T 90.00000=T Traj:=T positionsangstrom=T Step:=T 0=T Bead:=T pbc="F F F"
C      -44.81590000     -31.79150000     -69.24610000
C      -45.89460000     -31.47410000     -70.06360000
C      -45.59890000     -31.21720000     -71.39430000
C      -44.33730000     -31.30150000     -71.95640000
C      -43.23600000     -31.40770000     -71.06420000
C      -43.49800000     -31.78720000     -69.76730000
H      -44.93520000     -32.09010000     -68.25580000
H      -46.39970000     -31.11550000     -72.09920000
H      -42.22720000     -31.46210000     -71.46560000
H      -42.79580000     -32.06770000     -69.06950000
C      -44.10990000     -30.99420000     -73.41030000
H      -43.18180000     -31.35000000     -73.76580000
H      -44.02320000     -29.96800000     -73.53890000
C      -47.36900000     -31.34010000     -69.63530000
H      -47.69630000     -30.71580000     -68.80970000
H      -47.98360000     -31.09430000     -70.50800000
S      -45.44070000     -31.40590000     -74.60740000
S      -48.20820000     -32.91300000     -69.16540000
C      -45.70400000     -33.26600000     -74.82550000
H      -46.36350000     -33.31970000     -75.72490000
H      -44.66570000     -33.63500000     -75.11410000
C      -48.26800000     -33.69810000     -70.80410000
H      -47.83870000     -32.97570000     -71.53480000
H      -49.40510000     -33.64110000     -71.10160000
C      -47.79470000     -35.11390000     -70.90360000
H      -48.38180000     -35.69230000     -70.12990000
H      -47.87560000     -35.51790000     -71.89590000
C      -46.14160000     -34.09320000     -73.58660000
H      -46.46760000     -35.07120000     -74.01190000
H      -47.07920000     -33.72930000     -73.17350000
C      -44.96390000     -34.48090000     -72.65310000
C      -43.63030000     -34.42030000     -73.04730000
C      -45.16570000     -34.98170000     -71.34420000
H      -43.26740000     -34.01040000     -73.98530000
C      -43.96200000     -35.33560000     -70.74480000
C      -46.31420000     -35.29030000     -70.50680000
C      -45.92470000     -35.62010000     -69.21900000
S      -42.61280000     -34.94760000     -71.79570000
S      -44.15270000     -35.72400000     -69.04130000
H      -46.54890000     -35.64560000     -68.41730000
