40
Properties=species:S:1:pos:R:3 #=T CELL(abcABC):=T 1.889726e+02=T 90.00000=T Traj:=T positionsangstrom=T Step:=T 0=T Bead:=T pbc="F F F"
C      -45.02860000     -31.46370000     -68.90550000
C      -46.08900000     -31.20360000     -69.76560000
C      -45.82330000     -31.04090000     -71.15790000
C      -44.57440000     -31.37110000     -71.67500000
C      -43.56800000     -31.72700000     -70.76250000
C      -43.77750000     -31.78970000     -69.39610000
H      -45.25440000     -31.50050000     -67.83710000
H      -46.58880000     -30.58810000     -71.78680000
H      -42.54210000     -32.01430000     -71.08670000
H      -43.02310000     -32.34040000     -68.85010000
C      -44.32190000     -31.11350000     -73.17260000
H      -43.58400000     -31.69250000     -73.66850000
H      -44.04530000     -30.10520000     -73.37270000
C      -47.51040000     -31.13610000     -69.36640000
H      -47.56950000     -30.90800000     -68.25890000
H      -48.08320000     -30.52090000     -70.00270000
S      -45.90540000     -31.60000000     -74.12970000
S      -48.49990000     -32.71940000     -69.60880000
C      -45.51830000     -33.23450000     -74.82240000
H      -46.21160000     -33.30990000     -75.72290000
H      -44.50730000     -33.25690000     -75.17090000
C      -47.96050000     -33.50030000     -71.24210000
H      -47.29940000     -32.86050000     -71.75290000
H      -48.94150000     -33.54970000     -71.83780000
C      -47.55110000     -35.00450000     -71.18710000
H      -48.20140000     -35.46140000     -70.51670000
H      -47.77910000     -35.44620000     -72.19550000
C      -45.68650000     -34.48770000     -73.96650000
H      -45.83810000     -35.34650000     -74.59340000
H      -46.69230000     -34.41570000     -73.49250000
C      -44.67100000     -34.70790000     -72.90720000
C      -43.32120000     -34.60520000     -73.14760000
C      -44.92050000     -35.11940000     -71.51790000
H      -42.75150000     -34.49090000     -74.07930000
C      -43.73840000     -35.34060000     -70.82030000
C      -46.13160000     -35.26060000     -70.74440000
C      -45.83210000     -35.58770000     -69.45730000
S      -42.24680000     -34.91530000     -71.74300000
S      -44.08050000     -35.70850000     -69.17800000
H      -46.49390000     -35.84450000     -68.68020000
