40
Properties=species:S:1:pos:R:3 #=T CELL(abcABC):=T 1.889726e+02=T 90.00000=T Traj:=T positionsangstrom=T Step:=T 0=T Bead:=T pbc="F F F"
C      -45.10730000     -31.45700000     -68.88180000
C      -46.17550000     -31.13170000     -69.74730000
C      -45.96850000     -31.05520000     -71.11610000
C      -44.66820000     -31.27830000     -71.67590000
C      -43.63920000     -31.53800000     -70.81790000
C      -43.87010000     -31.66610000     -69.46330000
H      -45.28730000     -31.75190000     -67.85860000
H      -46.77060000     -31.10710000     -71.85040000
H      -42.66000000     -31.68870000     -71.21400000
H      -42.99060000     -31.80230000     -68.81050000
C      -44.41800000     -31.30700000     -73.16950000
H      -43.62560000     -31.97070000     -73.49800000
H      -44.21900000     -30.19820000     -73.38060000
C      -47.58980000     -31.18620000     -69.34250000
H      -47.54480000     -31.02760000     -68.26500000
H      -48.14430000     -30.30360000     -69.66910000
S      -45.94140000     -31.66120000     -74.15840000
S      -48.38160000     -32.82120000     -69.71420000
C      -45.54310000     -33.26730000     -75.01130000
H      -46.25190000     -33.40900000     -75.79770000
H      -44.56140000     -33.09680000     -75.46970000
C      -47.81710000     -33.52510000     -71.28350000
H      -46.84850000     -32.98040000     -71.50060000
H      -48.48050000     -33.39530000     -72.12170000
C      -47.47270000     -35.03170000     -71.09530000
H      -48.12080000     -35.53900000     -70.34020000
H      -47.74900000     -35.53280000     -72.03720000
C      -45.68190000     -34.41770000     -74.03730000
H      -45.58260000     -35.36820000     -74.66630000
H      -46.66270000     -34.34410000     -73.58180000
C      -44.64290000     -34.57620000     -72.88440000
C      -43.29180000     -34.57720000     -73.15260000
C      -44.87540000     -34.94960000     -71.44980000
H      -42.77220000     -34.16700000     -74.01970000
C      -43.73010000     -35.21470000     -70.74790000
C      -46.07600000     -35.21250000     -70.63900000
C      -45.76260000     -35.48860000     -69.35860000
S      -42.25270000     -35.09680000     -71.75540000
S      -44.06490000     -35.68090000     -69.09370000
H      -46.41450000     -35.58570000     -68.52060000
