40
Properties=species:S:1:pos:R:3 #=T CELL(abcABC):=T 1.889726e+02=T 90.00000=T Traj:=T positionsangstrom=T Step:=T 0=T Bead:=T pbc="F F F"
C      -44.89280000     -30.60360000     -71.47200000
C      -45.81710000     -30.89700000     -72.49580000
C      -45.38050000     -31.90480000     -73.37940000
C      -44.08830000     -32.41680000     -73.39200000
C      -43.26630000     -32.20860000     -72.23270000
C      -43.67230000     -31.24840000     -71.33670000
H      -45.31280000     -29.84730000     -70.74990000
H      -46.04740000     -32.31530000     -74.19680000
H      -42.32130000     -32.70500000     -72.10930000
H      -42.93790000     -30.99510000     -70.56410000
C      -43.71490000     -33.50850000     -74.39750000
H      -42.67020000     -33.45080000     -74.75410000
H      -44.34130000     -33.43920000     -75.30500000
C      -47.22250000     -30.37970000     -72.54480000
H      -47.31430000     -29.28250000     -72.39230000
H      -47.57000000     -30.63280000     -73.57320000
S      -43.77940000     -35.32240000     -73.88190000
S      -48.33250000     -31.18760000     -71.18270000
C      -45.58770000     -35.52090000     -73.54900000
H      -45.97470000     -34.55490000     -73.68190000
H      -46.03390000     -36.20120000     -74.34820000
C      -48.19410000     -32.94900000     -71.67940000
H      -47.43610000     -33.14740000     -72.44760000
H      -49.17800000     -33.07450000     -72.12900000
C      -48.00560000     -34.03520000     -70.60580000
H      -48.88910000     -34.09990000     -70.00140000
H      -47.95350000     -34.96780000     -71.14430000
C      -45.81050000     -36.12570000     -72.18800000
H      -45.70000000     -37.22220000     -72.29890000
H      -46.89870000     -36.12180000     -71.84800000
C      -44.96870000     -35.47620000     -71.05280000
C      -43.64590000     -35.86410000     -70.77130000
C      -45.42350000     -34.50990000     -70.13540000
H      -43.00560000     -36.69610000     -71.13780000
C      -44.50180000     -34.12400000     -69.17480000
C      -46.68140000     -33.88340000     -69.84570000
C      -46.65010000     -32.97370000     -68.82160000
S      -42.96920000     -34.97010000     -69.37840000
S      -45.03670000     -32.87700000     -68.06300000
H      -47.50430000     -32.39010000     -68.43450000
