40
Properties=species:S:1:pos:R:3 #=T CELL(abcABC):=T 1.889726e+02=T 90.00000=T Traj:=T positionsangstrom=T Step:=T 0=T Bead:=T pbc="F F F"
C      -44.70320000     -32.09830000     -68.88230000
C      -45.68820000     -31.48910000     -69.72740000
C      -45.30870000     -31.08240000     -71.01870000
C      -44.05110000     -31.45070000     -71.47830000
C      -43.09660000     -32.06710000     -70.66610000
C      -43.41510000     -32.46210000     -69.30990000
H      -45.01500000     -32.48050000     -67.86240000
H      -46.11250000     -30.72210000     -71.73650000
H      -42.05190000     -32.29970000     -70.83140000
H      -42.71430000     -32.99290000     -68.70990000
C      -43.72270000     -31.25650000     -72.97110000
H      -42.99590000     -31.97670000     -73.32310000
H      -43.21860000     -30.26660000     -73.17410000
C      -47.17430000     -31.24150000     -69.24780000
H      -47.09760000     -30.76080000     -68.25560000
H      -47.55960000     -30.52510000     -69.97910000
S      -45.22420000     -31.22360000     -74.12520000
S      -48.32810000     -32.70580000     -69.46300000
C      -45.18910000     -32.97740000     -74.99970000
H      -45.73260000     -32.88060000     -75.99580000
H      -44.06930000     -33.01830000     -75.32610000
C      -48.35770000     -33.22360000     -71.24180000
H      -47.66310000     -32.60280000     -71.83450000
H      -49.39500000     -32.88170000     -71.57450000
C      -48.03760000     -34.61480000     -71.52450000
H      -48.79530000     -35.30460000     -71.05960000
H      -47.99340000     -34.78620000     -72.59420000
C      -45.81680000     -34.10650000     -74.08780000
H      -46.16890000     -34.91840000     -74.73480000
H      -46.73410000     -33.64060000     -73.65240000
C      -44.91010000     -34.58720000     -73.01050000
C      -43.53400000     -34.62480000     -73.11700000
C      -45.32390000     -34.87660000     -71.66290000
H      -42.98900000     -34.31120000     -73.98950000
C      -44.26020000     -35.25350000     -70.83270000
C      -46.59970000     -34.96930000     -70.95390000
C      -46.40710000     -35.49030000     -69.72360000
S      -42.68040000     -35.25070000     -71.69090000
S      -44.71870000     -35.74540000     -69.18880000
H      -47.24320000     -35.73250000     -69.10180000
