40
Properties=species:S:1:pos:R:3 #=T CELL(abcABC):=T 1.889726e+02=T 90.00000=T Traj:=T positionsangstrom=T Step:=T 0=T Bead:=T pbc="F F F"
C      -43.94930000     -31.21580000     -71.27890000
C      -44.86970000     -31.01550000     -72.34050000
C      -44.85350000     -31.85150000     -73.47890000
C      -43.92480000     -32.92010000     -73.59510000
C      -42.96550000     -33.12540000     -72.49930000
C      -43.00940000     -32.27950000     -71.38380000
H      -43.83270000     -30.46240000     -70.46780000
H      -45.73970000     -31.82400000     -74.11260000
H      -42.36220000     -33.99770000     -72.44170000
H      -42.22480000     -32.48510000     -70.63240000
C      -44.04270000     -33.86700000     -74.71380000
H      -43.03120000     -34.14500000     -74.99620000
H      -44.59890000     -33.44730000     -75.53950000
C      -45.91020000     -29.96080000     -72.20390000
H      -45.49540000     -29.06280000     -71.66390000
H      -46.22860000     -29.73610000     -73.18680000
S      -44.77140000     -35.44110000     -74.23850000
S      -47.30420000     -30.42600000     -71.05900000
C      -46.41910000     -35.13090000     -73.44670000
H      -46.50220000     -34.07920000     -73.30940000
H      -47.13720000     -35.39530000     -74.16210000
C      -47.82360000     -32.03700000     -71.78710000
H      -47.04990000     -32.24040000     -72.56370000
H      -48.79380000     -31.89530000     -72.25360000
C      -48.03200000     -33.18480000     -70.74820000
H      -48.92320000     -33.09060000     -70.17860000
H      -48.17230000     -34.08160000     -71.24580000
C      -46.52900000     -35.88160000     -72.17690000
H      -46.28930000     -36.88840000     -72.42540000
H      -47.57970000     -35.81330000     -71.83070000
C      -45.50820000     -35.37690000     -71.05710000
C      -44.28180000     -35.95760000     -70.78780000
C      -45.80120000     -34.39000000     -70.08870000
H      -43.74350000     -36.63310000     -71.42640000
C      -44.84840000     -34.33510000     -69.07150000
C      -46.89600000     -33.51820000     -69.79130000
C      -46.63850000     -32.76660000     -68.63890000
S      -43.43780000     -35.37600000     -69.37610000
S      -45.12780000     -33.16620000     -67.84450000
H      -47.29290000     -32.00850000     -68.12540000
