40
Properties=species:S:1:pos:R:3 #=T CELL(abcABC):=T 1.889726e+02=T 90.00000=T Traj:=T positionsangstrom=T Step:=T 0=T Bead:=T pbc="F F F"
C      -44.74980000     -30.73590000     -71.21260000
C      -45.60890000     -30.84010000     -72.21910000
C      -45.27400000     -31.67490000     -73.30730000
C      -44.16900000     -32.53940000     -73.27440000
C      -43.27100000     -32.48620000     -72.17560000
C      -43.56620000     -31.53960000     -71.18520000
H      -44.85950000     -30.11240000     -70.39460000
H      -46.01620000     -31.76090000     -74.06730000
H      -42.29620000     -33.00390000     -72.15970000
H      -42.79550000     -31.30220000     -70.39460000
C      -43.87320000     -33.43810000     -74.43170000
H      -42.85590000     -33.25510000     -74.71560000
H      -44.53820000     -33.15930000     -75.26580000
C      -46.89850000     -30.06720000     -72.23700000
H      -46.87930000     -29.12750000     -71.70750000
H      -47.25420000     -29.78300000     -73.26410000
S      -44.12550000     -35.20070000     -73.95970000
S      -48.37260000     -30.95300000     -71.40190000
C      -45.84720000     -35.18940000     -73.25490000
H      -46.02910000     -34.19840000     -72.74550000
H      -46.55680000     -35.36820000     -73.96290000
C      -48.13670000     -32.70900000     -71.84990000
H      -47.36340000     -32.80260000     -72.59590000
H      -49.11290000     -32.95810000     -72.33910000
C      -47.95790000     -33.75910000     -70.65970000
H      -48.72120000     -33.47010000     -69.96480000
H      -48.18660000     -34.76850000     -71.00040000
C      -45.98370000     -36.29450000     -72.09010000
H      -45.76220000     -37.37630000     -72.39230000
H      -47.04490000     -36.24480000     -71.77980000
C      -45.17510000     -35.72610000     -70.94100000
C      -43.99800000     -36.38840000     -70.63480000
C      -45.38890000     -34.52880000     -70.16030000
H      -43.60780000     -37.31360000     -71.06170000
C      -44.39760000     -34.31360000     -69.22090000
C      -46.51100000     -33.63570000     -70.02240000
C      -46.33720000     -32.65560000     -69.06750000
S      -43.08510000     -35.55590000     -69.27710000
S      -44.68140000     -32.78630000     -68.36980000
H      -47.07400000     -32.01470000     -68.78640000
