40
Properties=species:S:1:pos:R:3 #=T CELL(abcABC):=T 1.889726e+02=T 90.00000=T Traj:=T positionsangstrom=T Step:=T 0=T Bead:=T pbc="F F F"
C      -46.87430000     -33.93820000     -74.57520000
C      -45.64930000     -34.59460000     -74.54510000
C      -44.42800000     -33.83120000     -74.52840000
C      -44.48560000     -32.46570000     -74.33690000
C      -45.73740000     -31.78080000     -74.29310000
C      -46.87170000     -32.53330000     -74.53860000
H      -47.80600000     -34.37870000     -74.75760000
H      -43.43340000     -34.22810000     -74.74030000
H      -45.64910000     -30.66720000     -74.35170000
H      -47.83160000     -31.94960000     -74.62620000
C      -43.18710000     -31.66840000     -74.19710000
H      -43.47590000     -30.59350000     -74.42590000
H      -42.54780000     -31.94710000     -75.00690000
C      -45.69870000     -36.08710000     -74.52660000
H      -46.67870000     -36.38620000     -74.87300000
H      -45.02030000     -36.59010000     -75.14920000
S      -42.17200000     -31.99940000     -72.66590000
S      -45.38560000     -36.87210000     -72.82120000
C      -43.43910000     -31.90160000     -71.36990000
H      -43.49350000     -30.84390000     -71.13450000
H      -44.40140000     -32.20200000     -71.83260000
C      -46.59100000     -35.90320000     -71.68600000
H      -47.04580000     -36.73020000     -71.05450000
H      -47.23780000     -35.36910000     -72.29490000
C      -45.74460000     -34.83440000     -70.99420000
H      -44.87960000     -35.30450000     -70.39880000
H      -45.32490000     -34.22540000     -71.80890000
C      -43.19230000     -32.73870000     -70.14720000
H      -42.18760000     -32.41740000     -69.75090000
H      -43.19910000     -33.72880000     -70.49560000
C      -44.25360000     -32.55150000     -69.13860000
C      -44.01770000     -31.67880000     -68.09840000
C      -45.61640000     -33.12340000     -69.14920000
H      -43.15440000     -31.04670000     -68.04690000
C      -46.39920000     -32.62110000     -68.10970000
C      -46.44610000     -34.05430000     -69.97250000
C      -47.68990000     -34.28430000     -69.47880000
S      -45.52390000     -31.37750000     -67.20450000
S      -47.97030000     -33.29640000     -67.97260000
H      -48.33590000     -34.99620000     -70.01730000
