40
Properties=species:S:1:pos:R:3 #=T CELL(abcABC):=T 1.889726e+02=T 90.00000=T Traj:=T positionsangstrom=T Step:=T 0=T Bead:=T pbc="F F F"
C      -44.08850000     -30.94610000     -71.33610000
C      -44.99990000     -30.81830000     -72.39360000
C      -45.06860000     -31.72860000     -73.46130000
C      -44.08340000     -32.80110000     -73.52330000
C      -43.18680000     -32.92440000     -72.43510000
C      -43.24700000     -32.04900000     -71.34970000
H      -44.20890000     -30.28320000     -70.50820000
H      -45.72440000     -31.58550000     -74.31410000
H      -42.38340000     -33.76210000     -72.41550000
H      -42.55250000     -32.22330000     -70.53790000
C      -44.05500000     -33.78310000     -74.69390000
H      -43.08910000     -33.78470000     -75.20690000
H      -44.76140000     -33.57140000     -75.51400000
C      -46.15060000     -29.84900000     -72.22450000
H      -45.94060000     -28.84950000     -71.80330000
H      -46.58300000     -29.68760000     -73.24050000
S      -44.55030000     -35.57020000     -74.27520000
S      -47.40290000     -30.59240000     -71.00330000
C      -46.18910000     -35.29820000     -73.53920000
H      -46.26340000     -34.16260000     -73.26640000
H      -47.04810000     -35.49930000     -74.16370000
C      -47.75880000     -32.24600000     -71.68760000
H      -46.93140000     -32.68170000     -72.24310000
H      -48.55440000     -32.13620000     -72.45870000
C      -48.09540000     -33.33540000     -70.59490000
H      -48.97170000     -32.92750000     -69.97430000
H      -48.67260000     -34.11660000     -71.13260000
C      -46.41280000     -36.02000000     -72.21630000
H      -46.26520000     -37.11810000     -72.32550000
H      -47.48000000     -35.99150000     -72.04440000
C      -45.50460000     -35.53950000     -70.97670000
C      -44.29940000     -36.11880000     -70.71760000
C      -45.75800000     -34.43880000     -70.06460000
H      -43.96530000     -36.93840000     -71.38970000
C      -44.67110000     -34.23960000     -69.17680000
C      -46.91610000     -33.54990000     -69.76260000
C      -46.58760000     -32.71750000     -68.71810000
S      -43.33680000     -35.34430000     -69.38560000
S      -45.01190000     -33.05680000     -67.93170000
H      -47.21980000     -31.95100000     -68.13550000
