40
Properties=species:S:1:pos:R:3 #=T CELL(abcABC):=T 1.889726e+02=T 90.00000=T Traj:=T positionsangstrom=T Step:=T 0=T Bead:=T pbc="F F F"
C      -44.24990000     -32.73780000     -69.02040000
C      -44.93760000     -31.61430000     -69.47100000
C      -44.69980000     -31.19140000     -70.79590000
C      -43.77320000     -31.79840000     -71.70800000
C      -42.97080000     -32.79530000     -71.11580000
C      -43.22740000     -33.26190000     -69.83320000
H      -44.43080000     -33.20280000     -68.02480000
H      -45.29830000     -30.42390000     -71.26700000
H      -42.22970000     -33.43240000     -71.67890000
H      -42.60620000     -34.02960000     -69.31530000
C      -43.47650000     -31.40120000     -73.11600000
H      -42.88040000     -32.17650000     -73.56240000
H      -42.88570000     -30.43870000     -73.13320000
C      -46.03320000     -31.02120000     -68.68270000
H      -45.65850000     -31.04280000     -67.71960000
H      -46.26130000     -29.97530000     -68.96090000
S      -44.86480000     -31.02350000     -74.18880000
S      -47.58110000     -32.05740000     -68.61930000
C      -45.55570000     -32.57050000     -74.81520000
H      -46.22420000     -32.22130000     -75.62650000
H      -44.72260000     -33.14430000     -75.24570000
C      -47.98260000     -32.17280000     -70.41990000
H      -47.22640000     -31.59280000     -70.95010000
H      -49.04550000     -31.82410000     -70.56080000
C      -48.05200000     -33.62190000     -70.96620000
H      -48.87380000     -34.16160000     -70.47340000
H      -48.21490000     -33.53160000     -72.10780000
C      -46.34520000     -33.32290000     -73.76820000
H      -47.16830000     -33.76550000     -74.27410000
H      -46.80240000     -32.70920000     -73.00290000
C      -45.50980000     -34.34070000     -73.04830000
C      -44.34690000     -34.89350000     -73.55530000
C      -45.81570000     -34.80900000     -71.75070000
H      -43.85370000     -34.70600000     -74.51800000
C      -44.82070000     -35.71120000     -71.25620000
C      -46.79220000     -34.50270000     -70.73360000
C      -46.53060000     -35.19910000     -69.60880000
S      -43.63110000     -36.14470000     -72.45170000
S      -45.11830000     -36.18310000     -69.64980000
H      -47.08260000     -35.14230000     -68.68680000
