40
Properties=species:S:1:pos:R:3 #=T CELL(abcABC):=T 1.889726e+02=T 90.00000=T Traj:=T positionsangstrom=T Step:=T 0=T Bead:=T pbc="F F F"
C      -44.15580000     -32.59730000     -69.10790000
C      -45.00300000     -31.67680000     -69.67850000
C      -44.70740000     -31.27230000     -71.02750000
C      -43.75630000     -31.93710000     -71.80860000
C      -42.99780000     -32.91040000     -71.17970000
C      -43.23180000     -33.27610000     -69.86540000
H      -44.18690000     -32.88480000     -68.07080000
H      -45.21880000     -30.40300000     -71.37790000
H      -42.32480000     -33.38820000     -71.82320000
H      -42.65210000     -34.00940000     -69.38030000
C      -43.41140000     -31.35930000     -73.25220000
H      -42.93760000     -32.18610000     -73.73840000
H      -42.64620000     -30.57480000     -73.24240000
C      -46.11030000     -30.98830000     -68.91800000
H      -45.80040000     -30.88980000     -67.86100000
H      -46.33760000     -29.97880000     -69.25740000
S      -44.82300000     -30.74140000     -74.17360000
S      -47.61860000     -32.03150000     -68.79380000
C      -45.62700000     -32.36280000     -74.78490000
H      -46.45360000     -32.07390000     -75.44600000
H      -44.76350000     -32.85110000     -75.30040000
C      -47.87810000     -32.30810000     -70.60100000
H      -47.07840000     -31.86820000     -71.13590000
H      -48.70550000     -31.67890000     -70.95430000
C      -48.07700000     -33.82430000     -70.82770000
H      -48.87150000     -34.08660000     -70.11400000
H      -48.54790000     -34.03380000     -71.71560000
C      -46.26510000     -33.31410000     -73.73370000
H      -47.10130000     -33.97690000     -74.20900000
H      -46.76100000     -32.65520000     -73.00240000
C      -45.44530000     -34.33220000     -72.95110000
C      -44.27070000     -34.92720000     -73.41530000
C      -45.84210000     -34.86570000     -71.65280000
H      -43.77890000     -34.79460000     -74.41680000
C      -44.87160000     -35.80680000     -71.14920000
C      -46.86270000     -34.65530000     -70.63680000
C      -46.68660000     -35.31300000     -69.46290000
S      -43.50200000     -36.03510000     -72.27570000
S      -45.21830000     -36.30950000     -69.50300000
H      -47.40320000     -35.37540000     -68.64630000
