40
Properties=species:S:1:pos:R:3 #=T CELL(abcABC):=T 1.889726e+02=T 90.00000=T Traj:=T positionsangstrom=T Step:=T 0=T Bead:=T pbc="F F F"
C      -44.22110000     -32.69570000     -69.19100000
C      -44.95890000     -31.62270000     -69.77320000
C      -44.59200000     -31.18060000     -71.06970000
C      -43.48510000     -31.71990000     -71.72900000
C      -42.82200000     -32.78150000     -71.10740000
C      -43.14100000     -33.24770000     -69.81230000
H      -44.55930000     -33.06890000     -68.23700000
H      -45.14350000     -30.35330000     -71.57310000
H      -41.99090000     -33.15970000     -71.56700000
H      -42.62140000     -34.02960000     -69.39190000
C      -43.26980000     -31.36090000     -73.19800000
H      -42.77660000     -32.14390000     -73.86290000
H      -42.66020000     -30.43620000     -73.28600000
C      -46.04210000     -30.89620000     -69.11710000
H      -45.87470000     -30.55020000     -68.08200000
H      -46.36060000     -30.02170000     -69.68010000
S      -44.96870000     -30.83830000     -74.01020000
S      -47.57390000     -31.96750000     -68.97080000
C      -45.64790000     -32.45000000     -74.71560000
H      -46.27520000     -32.18550000     -75.51440000
H      -44.83250000     -32.87100000     -75.26990000
C      -48.03000000     -32.41320000     -70.67080000
H      -47.25920000     -32.05230000     -71.32680000
H      -49.01920000     -31.95580000     -70.79830000
C      -48.15450000     -33.93320000     -70.92090000
H      -48.97820000     -34.37160000     -70.28530000
H      -48.42910000     -34.09290000     -71.97640000
C      -46.30290000     -33.31500000     -73.68520000
H      -47.01900000     -33.85440000     -74.19430000
H      -46.79770000     -32.66100000     -73.01600000
C      -45.44250000     -34.23210000     -72.84730000
C      -44.27640000     -34.83010000     -73.35370000
C      -45.78750000     -34.81790000     -71.56910000
H      -43.66050000     -34.56420000     -74.23300000
C      -44.84280000     -35.72960000     -71.08080000
C      -46.94680000     -34.80590000     -70.65740000
C      -46.81770000     -35.61140000     -69.56800000
S      -43.51720000     -35.93380000     -72.20010000
S      -45.25620000     -36.39560000     -69.51860000
H      -47.39860000     -35.77280000     -68.70540000
