40
Properties=species:S:1:pos:R:3 #=T CELL(abcABC):=T 1.889726e+02=T 90.00000=T Traj:=T positionsangstrom=T Step:=T 0=T Bead:=T pbc="F F F"
C      -43.77800000     -32.34540000     -68.96850000
C      -44.61760000     -31.42650000     -69.61860000
C      -44.55750000     -31.22680000     -70.97900000
C      -43.69400000     -31.94970000     -71.80350000
C      -42.85410000     -32.91390000     -71.12270000
C      -42.86080000     -33.04720000     -69.70970000
H      -43.95690000     -32.49250000     -67.91190000
H      -45.28780000     -30.59580000     -71.48950000
H      -42.29380000     -33.59990000     -71.76890000
H      -42.44450000     -33.96260000     -69.19580000
C      -43.63980000     -31.70100000     -73.26270000
H      -43.24820000     -32.60360000     -73.73560000
H      -42.97100000     -30.80570000     -73.49080000
C      -45.64340000     -30.74390000     -68.89250000
H      -45.38890000     -30.80480000     -67.77890000
H      -45.81170000     -29.63300000     -69.11530000
S      -45.16490000     -31.17570000     -74.12430000
S      -47.18020000     -31.69390000     -68.90360000
C      -45.91370000     -32.71570000     -74.87500000
H      -46.62910000     -32.23280000     -75.44420000
H      -45.13140000     -33.17190000     -75.50140000
C      -47.70800000     -32.13970000     -70.60730000
H      -46.87620000     -31.87160000     -71.27340000
H      -48.60940000     -31.54320000     -70.77540000
C      -48.02380000     -33.66490000     -70.72850000
H      -48.80850000     -33.87230000     -69.93460000
H      -48.47880000     -33.80020000     -71.77740000
C      -46.64370000     -33.62870000     -73.87270000
H      -47.38180000     -34.26600000     -74.33830000
H      -47.26040000     -33.04170000     -73.15860000
C      -45.72750000     -34.46860000     -73.02120000
C      -44.66210000     -35.18800000     -73.56030000
C      -45.95230000     -34.85940000     -71.61910000
H      -44.36870000     -35.20460000     -74.57860000
C      -44.95850000     -35.70250000     -71.13590000
C      -46.92610000     -34.57120000     -70.59980000
C      -46.64220000     -35.19160000     -69.38490000
S      -43.73730000     -36.09370000     -72.32250000
S      -45.21200000     -36.21760000     -69.50300000
H      -47.13710000     -35.08460000     -68.47610000
