40
Properties=species:S:1:pos:R:3 #=T CELL(abcABC):=T 1.889726e+02=T 90.00000=T Traj:=T positionsangstrom=T Step:=T 0=T Bead:=T pbc="F F F"
C      -43.96080000     -32.49610000     -68.90600000
C      -44.77940000     -31.57180000     -69.53880000
C      -44.64640000     -31.30290000     -70.89270000
C      -43.65290000     -31.91000000     -71.67530000
C      -42.73130000     -32.67390000     -70.99610000
C      -42.91660000     -33.13820000     -69.67340000
H      -44.22220000     -32.84640000     -67.86500000
H      -45.24630000     -30.53540000     -71.32900000
H      -41.94760000     -33.17070000     -71.50570000
H      -42.19490000     -33.77210000     -69.23440000
C      -43.52620000     -31.61550000     -73.18490000
H      -43.23230000     -32.49200000     -73.76540000
H      -42.75870000     -30.79600000     -73.35930000
C      -45.93530000     -30.86190000     -68.79750000
H      -45.66950000     -30.82540000     -67.68750000
H      -46.11180000     -29.84350000     -69.26560000
S      -45.12970000     -31.16750000     -73.98490000
S      -47.47820000     -31.89780000     -68.77520000
C      -45.82610000     -32.68860000     -74.90650000
H      -46.46990000     -32.18420000     -75.63140000
H      -44.98550000     -33.18340000     -75.34620000
C      -47.88690000     -32.04960000     -70.56520000
H      -47.16200000     -31.58400000     -71.18300000
H      -48.93700000     -31.68340000     -70.63860000
C      -47.98560000     -33.59980000     -70.78880000
H      -48.76420000     -33.93570000     -70.02490000
H      -48.52060000     -33.74640000     -71.72910000
C      -46.53980000     -33.58730000     -73.99470000
H      -47.13700000     -34.35700000     -74.60270000
H      -47.31270000     -33.12050000     -73.43310000
C      -45.62400000     -34.47570000     -73.12780000
C      -44.55670000     -35.22610000     -73.70080000
C      -45.81260000     -34.76230000     -71.72910000
H      -44.22980000     -35.16110000     -74.75810000
C      -44.91610000     -35.72000000     -71.26180000
C      -46.74480000     -34.37790000     -70.68330000
C      -46.47560000     -35.02520000     -69.52200000
S      -43.70890000     -36.16730000     -72.44440000
S      -45.08850000     -36.11480000     -69.57410000
H      -47.05680000     -34.83430000     -68.58450000
