40
Properties=species:S:1:pos:R:3 #=T CELL(abcABC):=T 1.889726e+02=T 90.00000=T Traj:=T positionsangstrom=T Step:=T 0=T Bead:=T pbc="F F F"
C      -44.13330000     -32.66400000     -68.99930000
C      -44.95580000     -31.58590000     -69.53720000
C      -44.75300000     -31.26130000     -70.88330000
C      -43.80250000     -31.93000000     -71.70360000
C      -43.01830000     -32.94740000     -71.07860000
C      -43.08750000     -33.22000000     -69.70810000
H      -44.24880000     -32.99550000     -67.95840000
H      -45.27130000     -30.31710000     -71.18410000
H      -42.14440000     -33.34700000     -71.63400000
H      -42.46310000     -34.08450000     -69.26710000
C      -43.48820000     -31.40940000     -73.10670000
H      -42.74130000     -32.07320000     -73.61990000
H      -42.94060000     -30.50050000     -72.98300000
C      -45.98750000     -30.88730000     -68.71710000
H      -45.68270000     -30.57590000     -67.68860000
H      -46.36720000     -29.96730000     -69.26900000
S      -44.98520000     -30.96360000     -74.09190000
S      -47.54620000     -32.03890000     -68.56910000
C      -45.52420000     -32.50130000     -74.91420000
H      -46.18200000     -32.19720000     -75.73370000
H      -44.76410000     -33.03070000     -75.45870000
C      -47.96310000     -32.22820000     -70.38330000
H      -47.22240000     -31.64690000     -70.99830000
H      -48.94290000     -31.75580000     -70.46420000
C      -48.03950000     -33.69700000     -70.85430000
H      -48.82910000     -34.20770000     -70.34850000
H      -48.21930000     -33.59480000     -71.95730000
C      -46.36500000     -33.49580000     -74.08740000
H      -47.03480000     -33.97530000     -74.84790000
H      -47.01380000     -32.90470000     -73.37430000
C      -45.58250000     -34.49900000     -73.20140000
C      -44.47610000     -35.16690000     -73.65160000
C      -45.82070000     -34.81130000     -71.77550000
H      -44.03650000     -35.17540000     -74.64330000
C      -44.81850000     -35.59170000     -71.24020000
C      -46.76990000     -34.47740000     -70.72050000
C      -46.44800000     -34.99600000     -69.54240000
S      -43.66210000     -36.15550000     -72.43250000
S      -45.04400000     -36.10680000     -69.62160000
H      -47.04250000     -34.93370000     -68.63200000
