40
Properties=species:S:1:pos:R:3 #=T CELL(abcABC):=T 1.889726e+02=T 90.00000=T Traj:=T positionsangstrom=T Step:=T 0=T Bead:=T pbc="F F F"
C      -47.72680000     -29.48210000     -69.71460000
C      -46.78430000     -29.86960000     -70.69190000
C      -45.64400000     -30.54810000     -70.23040000
C      -45.32950000     -30.72200000     -68.89260000
C      -46.21550000     -30.25320000     -67.91030000
C      -47.41830000     -29.68980000     -68.34900000
H      -48.58460000     -28.90360000     -69.97490000
H      -44.90100000     -30.86560000     -70.99080000
H      -45.98280000     -30.42010000     -66.86580000
H      -48.15700000     -29.50670000     -67.59130000
C      -43.95680000     -31.18260000     -68.61790000
H      -43.43810000     -30.59910000     -67.83550000
H      -43.35320000     -31.26370000     -69.52870000
C      -47.04160000     -29.70930000     -72.17360000
H      -47.71480000     -28.94410000     -72.49380000
H      -46.10780000     -29.72890000     -72.68740000
S      -44.17950000     -32.91950000     -67.85030000
S      -47.90200000     -31.34340000     -72.55720000
C      -43.53550000     -33.96190000     -69.12700000
H      -42.61480000     -33.54990000     -69.53550000
H      -43.26960000     -34.95920000     -68.72260000
C      -46.56700000     -32.63450000     -73.12460000
H      -45.64170000     -32.23740000     -72.72760000
H      -46.51230000     -32.59450000     -74.20540000
C      -46.89220000     -34.05450000     -72.58960000
H      -46.73270000     -34.11790000     -71.53670000
H      -47.92960000     -34.37960000     -72.90020000
C      -44.54070000     -34.22130000     -70.26130000
H      -44.88730000     -33.32760000     -70.81810000
H      -45.48110000     -34.50580000     -69.80700000
C      -44.04700000     -35.21380000     -71.21030000
C      -42.98320000     -36.00770000     -71.05270000
C      -44.72120000     -35.43630000     -72.56530000
H      -42.21960000     -35.85760000     -70.33100000
C      -44.05230000     -36.39790000     -73.30920000
C      -45.91990000     -35.01210000     -73.25700000
C      -46.11720000     -35.64600000     -74.46220000
S      -42.61290000     -37.09070000     -72.48560000
S      -44.89470000     -36.84350000     -74.79310000
H      -46.92150000     -35.54370000     -75.21730000
