40
Properties=species:S:1:pos:R:3 #=T CELL(abcABC):=T 1.889726e+02=T 90.00000=T Traj:=T positionsangstrom=T Step:=T 0=T Bead:=T pbc="F F F"
C      -43.91840000     -32.56090000     -69.22080000
C      -44.65720000     -31.50770000     -69.78890000
C      -44.49460000     -31.10310000     -71.11200000
C      -43.60550000     -31.87730000     -71.92730000
C      -42.86080000     -32.94030000     -71.37910000
C      -43.01780000     -33.34050000     -70.01350000
H      -43.98210000     -32.66000000     -68.13460000
H      -45.06320000     -30.24930000     -71.54080000
H      -42.30840000     -33.50350000     -72.06150000
H      -42.41350000     -34.13230000     -69.57180000
C      -43.41550000     -31.56010000     -73.35010000
H      -42.94850000     -32.44590000     -73.89970000
H      -42.65850000     -30.73680000     -73.44430000
C      -45.55110000     -30.70120000     -68.93470000
H      -45.18290000     -30.48630000     -67.98460000
H      -45.86310000     -29.75110000     -69.35910000
S      -44.98140000     -31.02160000     -74.28320000
S      -47.14430000     -31.67560000     -68.68790000
C      -45.76980000     -32.59600000     -74.83800000
H      -46.60300000     -32.27860000     -75.55390000
H      -45.11210000     -33.11750000     -75.49370000
C      -47.85390000     -31.94430000     -70.38480000
H      -47.25650000     -31.37440000     -71.12860000
H      -48.83540000     -31.35350000     -70.44200000
C      -48.04330000     -33.46350000     -70.65410000
H      -48.80200000     -33.76370000     -69.84800000
H      -48.53590000     -33.46750000     -71.60660000
C      -46.44270000     -33.48470000     -73.73860000
H      -47.16720000     -33.95380000     -74.36120000
H      -47.01020000     -32.95440000     -72.99110000
C      -45.68910000     -34.57570000     -72.97310000
C      -44.67200000     -35.33810000     -73.48110000
C      -45.93490000     -34.79290000     -71.52270000
H      -44.26010000     -35.31970000     -74.48320000
C      -45.00250000     -35.74040000     -71.04000000
C      -46.93620000     -34.41810000     -70.53360000
C      -46.75670000     -35.21490000     -69.38140000
S      -43.89050000     -36.40450000     -72.29010000
S      -45.36940000     -36.25910000     -69.38150000
H      -47.34030000     -35.18370000     -68.44440000
