40
Properties=species:S:1:pos:R:3 #=T CELL(abcABC):=T 1.889726e+02=T 90.00000=T Traj:=T positionsangstrom=T Step:=T 0=T Bead:=T pbc="F F F"
C      -42.86510000     -33.61790000     -71.44570000
C      -43.27300000     -32.34830000     -71.82980000
C      -43.94170000     -32.24560000     -73.04290000
C      -44.34780000     -33.38730000     -73.77140000
C      -43.87010000     -34.61800000     -73.31240000
C      -43.19470000     -34.73770000     -72.15130000
H      -42.27990000     -33.78200000     -70.49640000
H      -44.27060000     -31.27490000     -73.38820000
H      -44.24760000     -35.43310000     -73.88780000
H      -42.88690000     -35.69110000     -71.81760000
C      -45.26850000     -33.35590000     -74.96250000
H      -44.91760000     -34.02190000     -75.75660000
H      -45.29140000     -32.28400000     -75.32080000
C      -42.74210000     -31.04100000     -71.17240000
H      -41.79920000     -31.20920000     -70.76550000
H      -42.71690000     -30.30750000     -71.99640000
S      -47.00540000     -34.06270000     -74.60820000
S      -43.83290000     -30.29420000     -69.83390000
C      -47.63590000     -32.76160000     -73.41810000
H      -46.71470000     -32.09710000     -73.30690000
H      -48.40830000     -32.16370000     -73.80780000
C      -45.56730000     -30.66740000     -70.59400000
H      -45.41920000     -31.29850000     -71.48910000
H      -45.91450000     -29.71080000     -70.97880000
C      -46.54900000     -31.26950000     -69.65880000
H      -46.75920000     -30.68490000     -68.77060000
H      -47.50700000     -31.19950000     -70.16650000
C      -48.07860000     -33.43270000     -72.10930000
H      -48.93270000     -34.06760000     -72.42370000
H      -48.54650000     -32.66530000     -71.44540000
C      -47.08060000     -34.27770000     -71.39560000
C      -46.72070000     -35.61570000     -71.67620000
C      -46.37170000     -33.82200000     -70.19730000
H      -47.11020000     -36.19600000     -72.48850000
C      -45.57910000     -34.90310000     -69.64870000
C      -46.15500000     -32.66910000     -69.36190000
C      -45.39760000     -32.80450000     -68.26490000
S      -45.75840000     -36.37930000     -70.48790000
S      -44.85830000     -34.48670000     -68.14100000
H      -45.21210000     -32.08530000     -67.48290000
