40
Properties=species:S:1:pos:R:3 #=T CELL(abcABC):=T 1.889726e+02=T 90.00000=T Traj:=T positionsangstrom=T Step:=T 0=T Bead:=T pbc="F F F"
C      -43.94090000     -32.61340000     -69.43380000
C      -44.57450000     -31.47800000     -70.01770000
C      -44.30470000     -31.05460000     -71.35370000
C      -43.44020000     -31.78600000     -72.13590000
C      -42.72660000     -32.88080000     -71.51990000
C      -42.93240000     -33.27600000     -70.19420000
H      -44.08740000     -32.86340000     -68.34400000
H      -44.68750000     -30.10880000     -71.77480000
H      -42.00660000     -33.42490000     -72.11960000
H      -42.31010000     -33.95860000     -69.65780000
C      -43.14200000     -31.39420000     -73.52930000
H      -42.48450000     -32.09220000     -74.00870000
H      -42.55790000     -30.48060000     -73.52670000
C      -45.61740000     -30.77140000     -69.20170000
H      -45.24520000     -30.23020000     -68.23680000
H      -46.04110000     -29.95740000     -69.73380000
S      -44.61900000     -31.05130000     -74.56670000
S      -47.09410000     -31.87320000     -68.56080000
C      -45.46290000     -32.68080000     -74.65470000
H      -46.11550000     -32.57700000     -75.52380000
H      -44.70040000     -33.36930000     -74.97630000
C      -47.88290000     -31.97680000     -70.24540000
H      -47.33380000     -31.42460000     -70.97600000
H      -48.75890000     -31.33480000     -70.18830000
C      -48.21830000     -33.39070000     -70.63910000
H      -49.06110000     -33.79910000     -70.01250000
H      -48.49440000     -33.48210000     -71.69000000
C      -46.25390000     -33.13910000     -73.43870000
H      -47.34850000     -33.26380000     -73.71740000
H      -46.33300000     -32.40090000     -72.65160000
C      -45.63650000     -34.29810000     -72.66980000
C      -44.77020000     -35.13060000     -73.28150000
C      -46.01970000     -34.77760000     -71.36280000
H      -44.34120000     -35.00250000     -74.25690000
C      -45.30710000     -35.94750000     -70.99110000
C      -47.04350000     -34.39140000     -70.36370000
C      -46.95350000     -35.23320000     -69.26630000
S      -44.27700000     -36.44300000     -72.23570000
S      -45.59770000     -36.39990000     -69.28430000
H      -47.70340000     -35.22280000     -68.49840000
