40
Properties=species:S:1:pos:R:3 #=T CELL(abcABC):=T 1.889726e+02=T 90.00000=T Traj:=T positionsangstrom=T Step:=T 0=T Bead:=T pbc="F F F"
C      -42.46670000     -32.72340000     -71.88630000
C      -43.34760000     -31.62090000     -71.90810000
C      -44.39610000     -31.61570000     -72.89230000
C      -44.57220000     -32.71140000     -73.72240000
C      -43.70430000     -33.82440000     -73.66360000
C      -42.65950000     -33.81140000     -72.74420000
H      -41.72880000     -32.74890000     -71.04740000
H      -45.07450000     -30.77410000     -73.01730000
H      -43.88390000     -34.63970000     -74.35620000
H      -41.89950000     -34.62710000     -72.74200000
C      -45.55720000     -32.55410000     -74.88130000
H      -45.19900000     -33.28680000     -75.70790000
H      -45.68240000     -31.49690000     -75.21910000
C      -43.07250000     -30.39210000     -71.03250000
H      -41.99000000     -30.39530000     -70.61620000
H      -43.22360000     -29.41450000     -71.60630000
S      -47.14120000     -33.46580000     -74.46680000
S      -44.26290000     -30.23180000     -69.48500000
C      -47.57890000     -32.79990000     -72.77190000
H      -46.69920000     -32.31200000     -72.38260000
H      -48.38950000     -31.93160000     -72.85780000
C      -45.93960000     -30.80560000     -70.11460000
H      -45.82220000     -31.10180000     -71.14060000
H      -46.55460000     -29.88570000     -70.01200000
C      -46.48300000     -32.00250000     -69.23260000
H      -46.42620000     -31.56850000     -68.23190000
H      -47.57430000     -32.12280000     -69.51170000
C      -48.22580000     -33.76210000     -71.81130000
H      -48.91350000     -34.40740000     -72.40120000
H      -48.76460000     -33.17560000     -71.07730000
C      -47.22340000     -34.70660000     -71.15480000
C      -47.21550000     -36.01910000     -71.58930000
C      -46.20440000     -34.42840000     -70.10680000
H      -47.56060000     -36.50370000     -72.45410000
C      -45.47530000     -35.59630000     -69.79690000
C      -45.77900000     -33.30560000     -69.32600000
C      -44.60440000     -33.49900000     -68.62700000
S      -45.91760000     -36.92940000     -70.79930000
S      -44.16180000     -35.21440000     -68.71000000
H      -44.22820000     -32.74490000     -67.95110000
