40
Properties=species:S:1:pos:R:3 #=T CELL(abcABC):=T 1.889726e+02=T 90.00000=T Traj:=T positionsangstrom=T Step:=T 0=T Bead:=T pbc="F F F"
C      -44.53860000     -32.55860000     -68.72070000
C      -45.03440000     -31.47050000     -69.46520000
C      -44.53340000     -31.27980000     -70.75650000
C      -43.58440000     -32.14910000     -71.32260000
C      -42.99890000     -33.15810000     -70.50460000
C      -43.49510000     -33.36020000     -69.23720000
H      -44.90170000     -32.64900000     -67.69990000
H      -45.03650000     -30.52590000     -71.33190000
H      -42.18500000     -33.78070000     -70.84390000
H      -43.08480000     -34.23520000     -68.67530000
C      -43.05950000     -31.92860000     -72.71760000
H      -42.90210000     -32.90560000     -73.10970000
H      -42.05700000     -31.46210000     -72.72110000
C      -46.13290000     -30.65710000     -68.93980000
H      -46.10630000     -30.47190000     -67.91730000
H      -46.19610000     -29.71260000     -69.51300000
S      -44.19580000     -31.04660000     -73.95360000
S      -47.88140000     -31.41900000     -69.16400000
C      -45.22900000     -32.38960000     -74.78930000
H      -45.71150000     -31.89900000     -75.54810000
H      -44.59750000     -33.09230000     -75.28470000
C      -47.84890000     -32.18320000     -70.81580000
H      -46.84950000     -31.96200000     -71.23450000
H      -48.62440000     -31.68670000     -71.42880000
C      -48.18890000     -33.66780000     -70.89330000
H      -48.86190000     -33.90030000     -70.07850000
H      -48.67460000     -33.87250000     -71.86340000
C      -46.18870000     -33.23480000     -73.94300000
H      -46.95940000     -33.63620000     -74.58430000
H      -46.70410000     -32.67550000     -73.20000000
C      -45.49850000     -34.33880000     -73.15600000
C      -44.36090000     -35.01640000     -73.60530000
C      -45.94700000     -34.84060000     -71.84710000
H      -43.86990000     -34.87750000     -74.57660000
C      -45.04850000     -35.82790000     -71.40190000
C      -46.94590000     -34.52470000     -70.79700000
C      -46.70580000     -35.30440000     -69.68230000
S      -43.75710000     -36.26990000     -72.47800000
S      -45.30660000     -36.29140000     -69.74010000
H      -47.25770000     -35.30160000     -68.69440000
