40
Properties=species:S:1:pos:R:3 #=T CELL(abcABC):=T 1.889726e+02=T 90.00000=T Traj:=T positionsangstrom=T Step:=T 0=T Bead:=T pbc="F F F"
C      -42.50370000     -32.71340000     -71.75250000
C      -43.27500000     -31.50750000     -72.01030000
C      -44.31010000     -31.57550000     -72.95640000
C      -44.49830000     -32.70960000     -73.77110000
C      -43.60430000     -33.77550000     -73.71640000
C      -42.62750000     -33.78190000     -72.67590000
H      -41.71410000     -32.77290000     -71.09530000
H      -44.88370000     -30.71290000     -73.16030000
H      -43.64840000     -34.59300000     -74.38740000
H      -41.96020000     -34.64880000     -72.51730000
C      -45.59660000     -32.69800000     -74.82660000
H      -45.29620000     -33.20800000     -75.71440000
H      -45.80140000     -31.69430000     -75.15620000
C      -43.22440000     -30.25160000     -71.14510000
H      -42.26720000     -29.94550000     -70.76440000
H      -43.54700000     -29.32560000     -71.59290000
S      -47.16030000     -33.52470000     -74.49320000
S      -44.19750000     -30.34380000     -69.54530000
C      -47.67620000     -32.76830000     -72.85990000
H      -46.80670000     -32.29410000     -72.42900000
H      -48.45420000     -32.08590000     -73.12010000
C      -45.95010000     -30.75300000     -70.01880000
H      -45.98210000     -30.88600000     -71.14060000
H      -46.60560000     -29.94270000     -69.86230000
C      -46.56670000     -31.93220000     -69.23510000
H      -46.52730000     -31.67550000     -68.17990000
H      -47.58840000     -32.07730000     -69.39170000
C      -48.11390000     -33.75410000     -71.78390000
H      -48.94390000     -34.36500000     -72.10400000
H      -48.47650000     -33.15530000     -70.88400000
C      -47.05950000     -34.70760000     -71.29030000
C      -47.05590000     -36.03670000     -71.61350000
C      -46.16590000     -34.38900000     -70.23330000
H      -47.53670000     -36.63640000     -72.39880000
C      -45.45090000     -35.51120000     -69.82220000
C      -45.85320000     -33.25060000     -69.33030000
C      -44.79220000     -33.60810000     -68.52180000
S      -45.91000000     -36.93480000     -70.69540000
S      -44.25540000     -35.21200000     -68.63860000
H      -44.47030000     -33.00090000     -67.65800000
