40
Properties=species:S:1:pos:R:3 #=T CELL(abcABC):=T 1.889726e+02=T 90.00000=T Traj:=T positionsangstrom=T Step:=T 0=T Bead:=T pbc="F F F"
C      -47.75130000     -29.55860000     -69.61110000
C      -46.79090000     -29.77870000     -70.59060000
C      -45.55560000     -30.29930000     -70.20120000
C      -45.30630000     -30.60490000     -68.84850000
C      -46.25700000     -30.37650000     -67.86840000
C      -47.45470000     -29.72110000     -68.21550000
H      -48.66090000     -29.05760000     -69.89090000
H      -44.76270000     -30.55060000     -70.93790000
H      -46.05020000     -30.54890000     -66.80230000
H      -48.18310000     -29.46930000     -67.51560000
C      -43.94110000     -31.37780000     -68.44020000
H      -43.43750000     -30.73430000     -67.70510000
H      -43.34590000     -31.37470000     -69.32480000
C      -47.28560000     -29.84520000     -72.04620000
H      -48.18310000     -29.12870000     -72.18390000
H      -46.47150000     -29.57610000     -72.78810000
S      -44.02610000     -33.00220000     -67.64550000
S      -48.00030000     -31.55100000     -72.43640000
C      -43.70720000     -34.31810000     -68.98470000
H      -42.63840000     -34.19940000     -69.21470000
H      -43.86330000     -35.30870000     -68.48780000
C      -46.58420000     -32.36040000     -73.16520000
H      -45.59930000     -32.17370000     -72.63100000
H      -46.51020000     -32.04300000     -74.23260000
C      -46.86070000     -33.84070000     -72.93070000
H      -47.03080000     -33.91000000     -71.85130000
H      -47.80680000     -34.10090000     -73.42150000
C      -44.53720000     -34.16620000     -70.28190000
H      -44.39250000     -33.13850000     -70.68100000
H      -45.55360000     -34.50160000     -70.15530000
C      -44.02600000     -35.21030000     -71.32320000
C      -42.92750000     -35.99690000     -71.19380000
C      -44.69390000     -35.45080000     -72.63640000
H      -42.43320000     -36.21330000     -70.30570000
C      -44.09480000     -36.42890000     -73.36920000
C      -45.82440000     -34.90490000     -73.39160000
C      -46.04560000     -35.50840000     -74.60000000
S      -42.64510000     -37.04650000     -72.64410000
S      -44.81580000     -36.70290000     -74.91420000
H      -46.96670000     -35.43810000     -75.20890000
