40
Properties=species:S:1:pos:R:3 #=T CELL(abcABC):=T 1.889726e+02=T 90.00000=T Traj:=T positionsangstrom=T Step:=T 0=T Bead:=T pbc="F F F"
C      -42.82450000     -33.02380000     -71.65270000
C      -43.38980000     -31.73130000     -71.83260000
C      -44.38030000     -31.60510000     -72.78960000
C      -44.81570000     -32.71180000     -73.60720000
C      -44.31660000     -33.94390000     -73.30660000
C      -43.30050000     -34.14710000     -72.36640000
H      -41.96150000     -33.12980000     -71.00710000
H      -44.83050000     -30.63820000     -72.97780000
H      -44.71440000     -34.85370000     -73.89270000
H      -42.89190000     -35.14860000     -72.17420000
C      -45.87070000     -32.37270000     -74.58010000
H      -45.60770000     -32.73520000     -75.55830000
H      -45.94650000     -31.28230000     -74.76090000
C      -42.97870000     -30.55530000     -70.88630000
H      -41.92670000     -30.58910000     -70.72130000
H      -43.21690000     -29.57350000     -71.34750000
S      -47.52220000     -33.12670000     -74.19800000
S      -43.83820000     -30.65120000     -69.23320000
C      -47.89420000     -32.41190000     -72.56420000
H      -47.04070000     -31.82190000     -72.18570000
H      -48.72090000     -31.79000000     -72.75840000
C      -45.67200000     -30.82540000     -69.68720000
H      -45.61530000     -30.92850000     -70.82850000
H      -46.17560000     -29.95970000     -69.30110000
C      -46.29750000     -32.11070000     -69.06210000
H      -46.43920000     -31.89010000     -67.96160000
H      -47.30710000     -32.12100000     -69.53220000
C      -48.17230000     -33.45790000     -71.54890000
H      -49.03060000     -33.99530000     -71.83840000
H      -48.54060000     -32.93160000     -70.65430000
C      -47.09450000     -34.45830000     -71.24940000
C      -47.10870000     -35.56360000     -72.02790000
C      -46.03180000     -34.35900000     -70.29690000
H      -47.87910000     -35.67140000     -72.79850000
C      -45.22200000     -35.52530000     -70.36340000
C      -45.58270000     -33.37920000     -69.25610000
C      -44.52250000     -33.89440000     -68.55770000
S      -45.76700000     -36.65620000     -71.59110000
S      -43.92430000     -35.46290000     -69.18300000
H      -43.95630000     -33.51890000     -67.74530000
