40
Properties=species:S:1:pos:R:3 #=T CELL(abcABC):=T 1.889726e+02=T 90.00000=T Traj:=T positionsangstrom=T Step:=T 0=T Bead:=T pbc="F F F"
C      -42.71890000     -33.05450000     -71.81070000
C      -43.36940000     -31.82120000     -71.71930000
C      -44.42010000     -31.52960000     -72.62640000
C      -44.82180000     -32.39720000     -73.68360000
C      -44.19010000     -33.68180000     -73.69900000
C      -43.25870000     -33.98930000     -72.74680000
H      -41.98060000     -33.46480000     -71.06840000
H      -45.04820000     -30.59190000     -72.55160000
H      -44.49610000     -34.44530000     -74.43830000
H      -42.87640000     -34.96510000     -72.79700000
C      -46.05210000     -32.09950000     -74.53280000
H      -45.85600000     -32.43850000     -75.59600000
H      -46.14600000     -31.02600000     -74.61660000
C      -42.95760000     -30.81470000     -70.64710000
H      -41.84490000     -30.74580000     -70.50070000
H      -43.23410000     -29.84820000     -71.05910000
S      -47.62510000     -32.80840000     -74.06310000
S      -43.59830000     -31.16610000     -68.92270000
C      -47.96920000     -32.05550000     -72.37250000
H      -47.10780000     -31.43170000     -72.00660000
H      -48.87530000     -31.45810000     -72.48890000
C      -45.50650000     -31.24980000     -69.29030000
H      -45.61460000     -31.13820000     -70.37890000
H      -45.90380000     -30.27380000     -68.96040000
C      -46.26920000     -32.45190000     -68.56940000
H      -46.19530000     -32.33060000     -67.45890000
H      -47.34190000     -32.25600000     -68.76740000
C      -48.16650000     -33.14810000     -71.41430000
H      -49.06550000     -33.72530000     -71.57560000
H      -48.12910000     -32.70230000     -70.37020000
C      -47.13330000     -34.25420000     -71.31120000
C      -47.15020000     -35.27700000     -72.24010000
C      -46.09090000     -34.42000000     -70.31320000
H      -47.77300000     -35.41290000     -73.04580000
C      -45.25490000     -35.52220000     -70.56230000
C      -45.78940000     -33.73290000     -69.09070000
C      -44.64880000     -34.28140000     -68.51810000
S      -45.65360000     -36.29060000     -72.10900000
S      -44.06710000     -35.75520000     -69.37950000
H      -44.24410000     -33.92710000     -67.61450000
