40
Properties=species:S:1:pos:R:3 #=T CELL(abcABC):=T 1.889726e+02=T 90.00000=T Traj:=T positionsangstrom=T Step:=T 0=T Bead:=T pbc="F F F"
C      -43.18990000     -34.04310000     -76.13500000
C      -43.57450000     -34.21720000     -74.83110000
C      -44.60070000     -33.36730000     -74.30190000
C      -45.12570000     -32.40370000     -75.13780000
C      -44.65350000     -32.12920000     -76.45580000
C      -43.74050000     -33.08560000     -76.96380000
H      -42.44570000     -34.80610000     -76.51210000
H      -44.89600000     -33.45920000     -73.19770000
H      -45.28980000     -31.42180000     -77.04280000
H      -43.37560000     -32.94230000     -78.01390000
C      -46.34470000     -31.57290000     -74.63660000
H      -47.14100000     -32.27500000     -74.38560000
H      -46.67000000     -30.82130000     -75.46560000
C      -43.13390000     -35.34890000     -73.96520000
H      -44.05300000     -35.89780000     -73.80830000
H      -42.44030000     -35.96050000     -74.59540000
S      -45.94480000     -30.66020000     -73.03870000
S      -42.46770000     -34.82220000     -72.27450000
C      -46.51310000     -31.89590000     -71.74010000
H      -47.55450000     -31.82620000     -71.72940000
H      -46.07550000     -32.87470000     -71.92170000
C      -43.74390000     -35.20420000     -71.04040000
H      -43.58360000     -36.10180000     -70.43160000
H      -44.73470000     -35.27670000     -71.46850000
C      -43.90740000     -34.08410000     -69.98070000
H      -43.02420000     -33.85970000     -69.45650000
H      -44.15220000     -33.19430000     -70.49960000
C      -46.07340000     -31.37370000     -70.36020000
H      -46.42470000     -30.38450000     -70.26010000
H      -44.97340000     -31.26980000     -70.37410000
C      -46.61460000     -32.25030000     -69.25240000
C      -47.72970000     -31.82340000     -68.46120000
C      -46.07450000     -33.46100000     -68.71140000
H      -48.38060000     -30.92770000     -68.65180000
C      -46.78920000     -33.84280000     -67.55840000
C      -44.91660000     -34.29950000     -68.91810000
C      -44.98030000     -35.46940000     -68.20820000
S      -48.25420000     -33.04970000     -67.30380000
S      -46.18630000     -35.41250000     -66.89670000
H      -44.19020000     -36.16370000     -68.12710000
