40
Properties=species:S:1:pos:R:3 #=T CELL(abcABC):=T 1.889726e+02=T 90.00000=T Traj:=T positionsangstrom=T Step:=T 0=T Bead:=T pbc="F F F"
C      -42.62790000     -32.78650000     -71.70870000
C      -43.21600000     -31.53450000     -71.91730000
C      -44.12560000     -31.43660000     -72.99230000
C      -44.57810000     -32.56760000     -73.74880000
C      -44.01630000     -33.81670000     -73.46290000
C      -43.04040000     -33.92280000     -72.46050000
H      -41.89250000     -32.94700000     -70.87090000
H      -44.64690000     -30.50150000     -73.17810000
H      -44.40460000     -34.73350000     -74.01790000
H      -42.67630000     -34.90180000     -72.14910000
C      -45.79040000     -32.49440000     -74.69250000
H      -45.57730000     -32.92500000     -75.68600000
H      -46.11890000     -31.40250000     -74.84350000
C      -43.05890000     -30.37500000     -71.01430000
H      -42.01340000     -30.22580000     -70.71460000
H      -43.34470000     -29.34220000     -71.42630000
S      -47.15430000     -33.49660000     -74.07510000
S      -43.86630000     -30.72880000     -69.38940000
C      -47.93620000     -32.55150000     -72.67430000
H      -47.11070000     -31.82090000     -72.22500000
H      -48.77760000     -31.91970000     -73.10900000
C      -45.63350000     -30.85240000     -69.84840000
H      -45.64130000     -31.12970000     -70.94800000
H      -46.17250000     -29.88360000     -69.81250000
C      -46.50720000     -31.97630000     -69.22460000
H      -46.78950000     -31.68960000     -68.19120000
H      -47.39680000     -31.90260000     -69.78890000
C      -48.41330000     -33.57280000     -71.64040000
H      -49.21720000     -34.19520000     -72.08760000
H      -48.93340000     -32.97580000     -70.79570000
C      -47.38770000     -34.64840000     -71.12300000
C      -47.27510000     -35.88340000     -71.73310000
C      -46.30730000     -34.39050000     -70.15800000
H      -47.96220000     -36.18900000     -72.50090000
C      -45.41380000     -35.50200000     -70.11370000
C      -45.79520000     -33.31950000     -69.43130000
C      -44.67930000     -33.62110000     -68.69470000
S      -45.84310000     -36.75980000     -71.22070000
S      -44.03760000     -35.24800000     -69.06880000
H      -44.00550000     -33.02970000     -68.09250000
