40
Properties=species:S:1:pos:R:3 #=T CELL(abcABC):=T 1.889726e+02=T 90.00000=T Traj:=T positionsangstrom=T Step:=T 0=T Bead:=T pbc="F F F"
C      -47.69870000     -29.80500000     -69.22450000
C      -46.88740000     -30.18580000     -70.33940000
C      -45.55690000     -30.65010000     -70.10370000
C      -45.09880000     -30.88600000     -68.80150000
C      -45.91010000     -30.42710000     -67.71220000
C      -47.19320000     -29.95390000     -67.94640000
H      -48.59570000     -29.29620000     -69.48990000
H      -44.88120000     -31.00670000     -70.87980000
H      -45.50170000     -30.43440000     -66.67060000
H      -47.83380000     -29.65950000     -67.07790000
C      -43.84090000     -31.61140000     -68.31420000
H      -43.41230000     -31.06890000     -67.48040000
H      -43.16090000     -31.83960000     -69.11910000
C      -47.51640000     -29.96850000     -71.71060000
H      -48.40810000     -29.38170000     -71.54110000
H      -46.77290000     -29.49060000     -72.43580000
S      -44.31060000     -33.31990000     -67.74960000
S      -48.08650000     -31.46120000     -72.68500000
C      -43.57910000     -34.30760000     -69.16360000
H      -42.51100000     -34.03400000     -69.34970000
H      -43.59960000     -35.34600000     -68.89430000
C      -46.55430000     -32.46830000     -72.83580000
H      -45.80900000     -32.20110000     -72.07640000
H      -46.11050000     -32.23740000     -73.85490000
C      -46.96370000     -33.87220000     -72.74190000
H      -47.18440000     -33.96560000     -71.65070000
H      -47.99160000     -33.99900000     -73.24350000
C      -44.48060000     -34.12280000     -70.40100000
H      -44.29130000     -33.15300000     -70.93050000
H      -45.55810000     -34.10810000     -70.22360000
C      -44.11460000     -35.13390000     -71.44360000
C      -42.96090000     -35.87430000     -71.27230000
C      -44.67250000     -35.21980000     -72.73830000
H      -42.35380000     -35.83070000     -70.33210000
C      -43.98610000     -36.16540000     -73.54460000
C      -45.93280000     -34.77510000     -73.33050000
C      -46.06880000     -35.24350000     -74.64780000
S      -42.64570000     -36.85390000     -72.75810000
S      -44.71370000     -36.30240000     -75.06850000
H      -46.83330000     -35.03550000     -75.33260000
