40
Properties=species:S:1:pos:R:3 #=T CELL(abcABC):=T 1.889726e+02=T 90.00000=T Traj:=T positionsangstrom=T Step:=T 0=T Bead:=T pbc="F F F"
C      -42.82810000     -33.82960000     -75.91110000
C      -43.55310000     -34.13950000     -74.74380000
C      -44.51430000     -33.29570000     -74.27110000
C      -44.93110000     -32.14460000     -74.96640000
C      -44.26430000     -31.90370000     -76.21230000
C      -43.22370000     -32.68460000     -76.66480000
H      -41.97630000     -34.39930000     -76.14660000
H      -44.94300000     -33.42210000     -73.33940000
H      -44.50670000     -31.01690000     -76.70240000
H      -42.66190000     -32.26780000     -77.48500000
C      -45.95510000     -31.22560000     -74.58590000
H      -46.96230000     -31.81770000     -74.54000000
H      -46.10790000     -30.44710000     -75.28400000
C      -43.11110000     -35.36240000     -73.95510000
H      -43.94100000     -36.07680000     -73.83320000
H      -42.28640000     -35.85380000     -74.46440000
S      -45.83680000     -30.52310000     -72.88110000
S      -42.43070000     -34.97790000     -72.23350000
C      -46.69580000     -31.67700000     -71.67140000
H      -47.79510000     -31.54770000     -71.67900000
H      -46.51970000     -32.69270000     -71.95320000
C      -43.91200000     -35.28770000     -71.14200000
H      -43.75420000     -36.26200000     -70.67980000
H      -44.74220000     -35.42580000     -71.80530000
C      -44.05120000     -34.12970000     -70.15710000
H      -43.07540000     -34.01390000     -69.71450000
H      -44.28820000     -33.29950000     -70.73560000
C      -46.26120000     -31.36590000     -70.26290000
H      -46.59000000     -30.30300000     -70.05140000
H      -45.20310000     -31.36240000     -70.32120000
C      -46.81370000     -32.36770000     -69.29400000
C      -47.92510000     -31.98230000     -68.55710000
C      -46.26840000     -33.61640000     -68.79890000
H      -48.36110000     -30.99220000     -68.64500000
C      -47.07230000     -34.21580000     -67.86490000
C      -45.06700000     -34.40860000     -69.04510000
C      -45.01340000     -35.56020000     -68.30440000
S      -48.48260000     -33.18090000     -67.43280000
S      -46.23850000     -35.57470000     -67.06790000
H      -44.29750000     -36.38610000     -68.31220000
