40
Properties=species:S:1:pos:R:3 #=T CELL(abcABC):=T 1.889726e+02=T 90.00000=T Traj:=T positionsangstrom=T Step:=T 0=T Bead:=T pbc="F F F"
C      -43.84690000     -31.87500000     -74.99470000
C      -44.02650000     -31.29570000     -73.71030000
C      -45.36820000     -31.04480000     -73.26890000
C      -46.48260000     -31.38610000     -74.12630000
C      -46.22610000     -31.88320000     -75.45500000
C      -44.91290000     -32.12990000     -75.87730000
H      -42.88520000     -32.15530000     -75.26670000
H      -45.53980000     -30.53170000     -72.31320000
H      -47.03450000     -32.17110000     -76.12190000
H      -44.68240000     -32.45480000     -76.88180000
C      -47.82710000     -31.12540000     -73.64170000
H      -48.49240000     -30.67480000     -74.44700000
H      -47.83760000     -30.49490000     -72.78900000
C      -42.85720000     -30.98110000     -72.81030000
H      -42.28730000     -30.16430000     -73.39440000
H      -43.21560000     -30.61730000     -71.81320000
S      -48.57390000     -32.76890000     -73.16360000
S      -41.70020000     -32.33510000     -72.34300000
C      -47.80360000     -33.19870000     -71.54120000
H      -47.28990000     -32.34440000     -71.13020000
H      -48.50900000     -33.67940000     -70.84320000
C      -42.26580000     -32.63970000     -70.55840000
H      -42.25670000     -31.67570000     -70.00950000
H      -41.53610000     -33.28590000     -70.03720000
C      -43.70590000     -33.28450000     -70.67410000
H      -44.37830000     -32.44880000     -70.87880000
H      -43.67840000     -34.01510000     -71.50810000
C      -46.77150000     -34.32280000     -71.73340000
H      -45.83200000     -33.95580000     -72.20430000
H      -47.24970000     -35.01790000     -72.41000000
C      -46.50190000     -34.94900000     -70.36350000
C      -47.43260000     -35.79360000     -69.82720000
C      -45.44080000     -34.73960000     -69.42060000
H      -48.30510000     -36.16490000     -70.25050000
C      -45.58500000     -35.46060000     -68.22920000
C      -44.18540000     -33.99800000     -69.40500000
C      -43.50130000     -34.04330000     -68.21220000
S      -46.99550000     -36.31950000     -68.18610000
S      -44.31800000     -35.10460000     -67.04750000
H      -42.48530000     -33.59220000     -68.09640000
