40
Properties=species:S:1:pos:R:3 #=T CELL(abcABC):=T 1.889726e+02=T 90.00000=T Traj:=T positionsangstrom=T Step:=T 0=T Bead:=T pbc="F F F"
C      -43.47860000     -31.89270000     -74.47730000
C      -43.76590000     -31.21190000     -73.27100000
C      -45.07360000     -30.87850000     -72.91650000
C      -46.07580000     -31.05870000     -73.85680000
C      -45.87450000     -31.83310000     -74.97930000
C      -44.54820000     -32.16590000     -75.33760000
H      -42.45560000     -32.14430000     -74.83610000
H      -45.23520000     -30.27130000     -72.03110000
H      -46.60590000     -32.14310000     -75.67460000
H      -44.31450000     -32.54720000     -76.36090000
C      -47.42430000     -30.61780000     -73.34190000
H      -48.11280000     -30.13850000     -74.10610000
H      -47.25160000     -29.79010000     -72.59290000
C      -42.59660000     -30.80150000     -72.37030000
H      -42.09620000     -29.95320000     -72.91310000
H      -43.05760000     -30.40160000     -71.47350000
S      -48.50090000     -32.04120000     -72.90530000
S      -41.47980000     -32.22010000     -72.05690000
C      -47.63240000     -32.93250000     -71.47220000
H      -46.77190000     -32.34340000     -71.19590000
H      -48.35860000     -33.01800000     -70.63920000
C      -42.38580000     -33.19500000     -70.79750000
H      -42.21480000     -32.71710000     -69.80280000
H      -41.81390000     -34.14810000     -70.78470000
C      -43.88820000     -33.40500000     -70.94430000
H      -44.58380000     -32.53200000     -71.13390000
H      -43.91820000     -34.00350000     -71.89470000
C      -47.03330000     -34.30200000     -71.92920000
H      -46.07080000     -34.17440000     -72.31460000
H      -47.70450000     -34.91770000     -72.58980000
C      -46.87250000     -35.11220000     -70.66520000
C      -47.66870000     -36.16580000     -70.28850000
C      -45.72910000     -34.87490000     -69.75230000
H      -48.46840000     -36.48400000     -70.86980000
C      -45.84160000     -35.61760000     -68.58760000
C      -44.46330000     -34.17720000     -69.74040000
C      -43.83150000     -34.26440000     -68.50510000
S      -47.20850000     -36.76320000     -68.64150000
S      -44.65540000     -35.36790000     -67.39930000
H      -42.92300000     -33.80130000     -68.16830000
