40
Properties=species:S:1:pos:R:3 #=T CELL(abcABC):=T 1.889726e+02=T 90.00000=T Traj:=T positionsangstrom=T Step:=T 0=T Bead:=T pbc="F F F"
C      -44.97490000     -36.79660000     -69.83870000
C      -45.54810000     -35.83490000     -69.00900000
C      -46.83140000     -35.38520000     -69.35500000
C      -47.55270000     -35.92200000     -70.39140000
C      -46.96640000     -36.95210000     -71.15390000
C      -45.72070000     -37.40280000     -70.84470000
H      -43.95700000     -37.16840000     -69.55260000
H      -47.20390000     -34.64580000     -68.76400000
H      -47.60370000     -37.43250000     -71.87870000
H      -45.30680000     -38.27480000     -71.36610000
C      -48.90690000     -35.31490000     -70.75710000
H      -49.61410000     -35.31010000     -69.88230000
H      -49.38780000     -35.98110000     -71.46060000
C      -44.72820000     -35.33050000     -67.88000000
H      -44.92360000     -35.86550000     -66.90710000
H      -43.64260000     -35.50670000     -67.96710000
S      -48.84270000     -33.59890000     -71.33460000
S      -45.04220000     -33.47540000     -67.59670000
C      -47.39810000     -33.48770000     -72.39120000
H      -46.57890000     -34.08870000     -72.08630000
H      -47.69030000     -33.77240000     -73.43220000
C      -44.39670000     -32.48260000     -69.03790000
H      -43.36630000     -32.12600000     -68.81110000
H      -45.05670000     -31.63020000     -69.03070000
C      -44.49090000     -33.17010000     -70.41210000
H      -44.25060000     -34.20860000     -70.39790000
H      -45.50860000     -33.16830000     -70.79580000
C      -46.89200000     -32.02860000     -72.37480000
H      -46.73660000     -31.72880000     -71.35620000
H      -47.68130000     -31.40040000     -72.75450000
C      -45.63120000     -31.74210000     -73.19150000
C      -45.58870000     -31.00870000     -74.34650000
C      -44.25970000     -31.99210000     -72.73910000
H      -46.48200000     -30.73840000     -74.92020000
C      -43.25910000     -31.38690000     -73.51330000
C      -43.69310000     -32.49500000     -71.49950000
C      -42.35450000     -32.35970000     -71.46400000
S      -43.95640000     -30.45620000     -74.86240000
S      -41.66370000     -31.70040000     -72.94960000
H      -41.70830000     -32.67310000     -70.70510000
