40
Properties=species:S:1:pos:R:3 #=T CELL(abcABC):=T 1.889726e+02=T 90.00000=T Traj:=T positionsangstrom=T Step:=T 0=T Bead:=T pbc="F F F"
C      -42.89500000     -32.41130000     -71.28390000
C      -43.77740000     -31.36540000     -70.86130000
C      -44.75490000     -30.92220000     -71.78790000
C      -44.91040000     -31.57650000     -72.96600000
C      -44.07010000     -32.65760000     -73.33630000
C      -43.06720000     -33.04390000     -72.50840000
H      -42.02100000     -32.69500000     -70.70940000
H      -45.29380000     -30.01150000     -71.54750000
H      -44.18990000     -33.18160000     -74.26000000
H      -42.44520000     -33.81570000     -72.93490000
C      -45.89370000     -31.15520000     -73.98440000
H      -45.55960000     -31.47890000     -75.03260000
H      -45.91650000     -30.02860000     -73.96070000
C      -43.59180000     -30.82080000     -69.49150000
H      -42.56630000     -30.90780000     -69.14220000
H      -43.74850000     -29.68960000     -69.43090000
S      -47.49780000     -32.05610000     -73.88420000
S      -44.51480000     -31.76510000     -68.15960000
C      -47.86820000     -32.39160000     -72.11910000
H      -46.98910000     -32.05540000     -71.45960000
H      -48.80790000     -31.80810000     -71.89920000
C      -46.16410000     -31.97880000     -68.86830000
H      -46.23940000     -31.77580000     -69.90990000
H      -46.90540000     -31.27860000     -68.31630000
C      -46.61590000     -33.47740000     -68.77980000
H      -46.64450000     -33.98940000     -67.71680000
H      -47.68470000     -33.52990000     -69.16570000
C      -48.18360000     -33.86630000     -71.98650000
H      -48.94580000     -34.10060000     -72.73100000
H      -48.64760000     -33.97190000     -70.95490000
C      -46.93670000     -34.76220000     -72.00670000
C      -46.57350000     -35.56250000     -73.10070000
C      -45.98590000     -34.87780000     -70.94290000
H      -47.22420000     -35.70460000     -73.95960000
C      -44.85930000     -35.67390000     -71.29530000
C      -45.69700000     -34.43710000     -69.59160000
C      -44.50420000     -34.76890000     -69.03840000
S      -44.99930000     -36.31680000     -72.90460000
S      -43.64510000     -35.81580000     -70.10640000
H      -44.11280000     -34.65000000     -67.97690000
