40
Properties=species:S:1:pos:R:3 #=T CELL(abcABC):=T 1.889726e+02=T 90.00000=T Traj:=T positionsangstrom=T Step:=T 0=T Bead:=T pbc="F F F"
C      -42.03840000     -31.38050000     -72.07610000
C      -42.26380000     -32.56330000     -72.85670000
C      -43.38240000     -32.55080000     -73.76000000
C      -44.21040000     -31.42660000     -73.86070000
C      -43.94710000     -30.25580000     -73.13240000
C      -42.87850000     -30.25040000     -72.20470000
H      -41.28850000     -31.31650000     -71.28550000
H      -43.71510000     -33.46560000     -74.28480000
H      -44.56270000     -29.38960000     -73.20480000
H      -42.74060000     -29.36510000     -71.56840000
C      -45.33280000     -31.42840000     -74.86050000
H      -45.30040000     -32.39040000     -75.36650000
H      -45.28510000     -30.65510000     -75.56530000
C      -41.47490000     -33.82000000     -72.69790000
H      -41.77650000     -34.64440000     -73.34100000
H      -40.36270000     -33.78800000     -73.07600000
S      -46.97760000     -31.13820000     -74.04150000
S      -41.34620000     -34.34240000     -70.88120000
C      -47.16630000     -32.54900000     -72.89000000
H      -48.10810000     -33.04480000     -73.14490000
H      -46.39720000     -33.26830000     -73.08250000
C      -42.94040000     -35.17080000     -70.50720000
H      -42.84780000     -35.36380000     -69.38850000
H      -42.99350000     -35.99490000     -71.20410000
C      -44.22130000     -34.21950000     -70.71050000
H      -44.11430000     -33.38570000     -69.97980000
H      -44.45870000     -33.84230000     -71.69270000
C      -46.95110000     -32.03970000     -71.43810000
H      -47.54610000     -31.19710000     -71.11270000
H      -45.95770000     -31.70630000     -71.19270000
C      -47.47200000     -33.03800000     -70.42990000
C      -48.67340000     -32.92750000     -69.76330000
C      -46.77540000     -34.25140000     -69.90900000
H      -49.40900000     -32.21830000     -69.97760000
C      -47.61590000     -35.04960000     -69.10020000
C      -45.50730000     -34.92540000     -70.16460000
C      -45.42590000     -36.18590000     -69.58640000
S      -49.12170000     -34.27480000     -68.64800000
S      -46.94060000     -36.61390000     -68.69920000
H      -44.62220000     -36.87270000     -69.74630000
