40
Properties=species:S:1:pos:R:3 #=T CELL(abcABC):=T 1.889726e+02=T 90.00000=T Traj:=T positionsangstrom=T Step:=T 0=T Bead:=T pbc="F F F"
C      -41.94850000     -31.53050000     -72.28170000
C      -42.25860000     -32.64570000     -73.05620000
C      -43.46850000     -32.66040000     -73.72850000
C      -44.18280000     -31.45340000     -73.87200000
C      -43.78210000     -30.23950000     -73.34210000
C      -42.68820000     -30.35080000     -72.47030000
H      -41.20090000     -31.42290000     -71.48080000
H      -43.77600000     -33.56020000     -74.25240000
H      -44.39660000     -29.29020000     -73.43430000
H      -42.42910000     -29.48010000     -71.90870000
C      -45.39970000     -31.43100000     -74.73900000
H      -45.49810000     -32.32110000     -75.37390000
H      -45.42640000     -30.55190000     -75.42540000
C      -41.45750000     -33.96670000     -72.88860000
H      -42.01840000     -34.69740000     -73.45190000
H      -40.55130000     -33.81660000     -73.22850000
S      -47.01700000     -31.05800000     -73.84080000
S      -41.33750000     -34.45490000     -71.14620000
C      -47.22430000     -32.36610000     -72.59060000
H      -48.23640000     -32.74360000     -72.65580000
H      -46.56260000     -33.21500000     -72.75570000
C      -43.05680000     -35.07990000     -70.72940000
H      -43.09230000     -35.43800000     -69.71780000
H      -43.20780000     -36.05270000     -71.20400000
C      -44.32640000     -34.23980000     -70.87620000
H      -44.02790000     -33.18290000     -70.62540000
H      -44.64990000     -34.20510000     -71.94330000
C      -46.93250000     -31.91420000     -71.13340000
H      -47.41380000     -30.96860000     -70.94140000
H      -45.86550000     -31.70660000     -71.12530000
C      -47.43900000     -32.91890000     -70.13060000
C      -48.74160000     -32.95960000     -69.70750000
C      -46.74430000     -34.14030000     -69.70990000
H      -49.58660000     -32.17060000     -69.76330000
C      -47.57610000     -34.98960000     -69.00680000
C      -45.45610000     -34.82260000     -70.01230000
C      -45.42920000     -36.12010000     -69.46990000
S      -49.17280000     -34.36490000     -68.69910000
S      -46.88460000     -36.57420000     -68.63400000
H      -44.69270000     -36.88030000     -69.74870000
