40
Properties=species:S:1:pos:R:3 #=T CELL(abcABC):=T 1.889726e+02=T 90.00000=T Traj:=T positionsangstrom=T Step:=T 0=T Bead:=T pbc="F F F"
C      -43.23610000     -32.06520000     -70.89160000
C      -44.31050000     -31.15370000     -70.65820000
C      -45.18580000     -30.90040000     -71.71880000
C      -45.05090000     -31.59370000     -72.94210000
C      -43.88120000     -32.38180000     -73.15440000
C      -42.97370000     -32.61900000     -72.11960000
H      -42.55320000     -32.36680000     -70.10820000
H      -46.04200000     -30.29400000     -71.53930000
H      -43.79360000     -32.90100000     -74.17830000
H      -42.09890000     -33.24610000     -72.24840000
C      -46.04290000     -31.26350000     -74.01250000
H      -45.58800000     -31.44340000     -75.04540000
H      -46.31580000     -30.20860000     -73.85510000
C      -44.65180000     -30.45540000     -69.39380000
H      -43.79950000     -30.05890000     -68.94480000
H      -45.33590000     -29.65170000     -69.57900000
S      -47.63430000     -32.26070000     -74.09760000
S      -45.45370000     -31.57270000     -67.98020000
C      -47.90580000     -32.83130000     -72.40530000
H      -47.34090000     -32.12310000     -71.77360000
H      -48.92360000     -32.62630000     -72.21900000
C      -46.76550000     -32.49400000     -68.89570000
H      -46.78310000     -32.38490000     -70.04200000
H      -47.76820000     -32.18300000     -68.42550000
C      -46.69600000     -34.01620000     -68.75860000
H      -46.53020000     -34.31080000     -67.72380000
H      -47.76810000     -34.40530000     -69.01150000
C      -47.76150000     -34.32000000     -72.14120000
H      -48.37840000     -34.89300000     -72.78840000
H      -48.19830000     -34.48450000     -71.07810000
C      -46.37530000     -34.92340000     -72.13490000
C      -45.81300000     -35.17580000     -73.33100000
C      -45.52350000     -35.01470000     -71.04310000
H      -46.23760000     -34.92540000     -74.27540000
C      -44.33380000     -35.62580000     -71.35900000
C      -45.59630000     -34.68260000     -69.60570000
C      -44.42810000     -35.10930000     -68.97430000
S      -44.15740000     -35.93900000     -73.10470000
S      -43.22430000     -35.76460000     -70.03560000
H      -44.26530000     -34.98400000     -67.94790000
