40
Properties=species:S:1:pos:R:3 #=T CELL(abcABC):=T 1.889726e+02=T 90.00000=T Traj:=T positionsangstrom=T Step:=T 0=T Bead:=T pbc="F F F"
C      -43.21220000     -32.04520000     -71.03520000
C      -44.32370000     -31.20480000     -70.75200000
C      -45.19710000     -30.83250000     -71.75400000
C      -45.13040000     -31.41560000     -73.03790000
C      -44.02620000     -32.25920000     -73.25650000
C      -43.15920000     -32.63120000     -72.27040000
H      -42.57170000     -32.35510000     -70.17840000
H      -45.95980000     -30.05850000     -71.64810000
H      -43.86490000     -32.91840000     -74.15130000
H      -42.29200000     -33.25350000     -72.53470000
C      -46.10680000     -31.10260000     -74.08870000
H      -45.54920000     -31.05440000     -75.06280000
H      -46.48570000     -30.12160000     -73.80880000
C      -44.46030000     -30.64320000     -69.34830000
H      -43.57520000     -30.08410000     -69.04570000
H      -45.31620000     -29.87780000     -69.43660000
S      -47.51030000     -32.25220000     -74.16980000
S      -44.97500000     -31.84330000     -68.03150000
C      -47.78820000     -32.57550000     -72.34560000
H      -47.08810000     -31.94730000     -71.76940000
H      -48.83900000     -32.26480000     -72.07500000
C      -46.55530000     -32.48700000     -68.72820000
H      -46.55910000     -32.15350000     -69.79230000
H      -47.42450000     -31.91230000     -68.17300000
C      -46.72180000     -34.06960000     -68.72540000
H      -46.78840000     -34.60620000     -67.76690000
H      -47.64750000     -34.25770000     -69.20910000
C      -47.81900000     -34.08000000     -72.03130000
H      -48.60430000     -34.62550000     -72.58980000
H      -48.05590000     -34.23050000     -70.89670000
C      -46.48620000     -34.74170000     -72.16400000
C      -45.97930000     -35.29230000     -73.33870000
C      -45.69840000     -34.98220000     -70.92650000
H      -46.58410000     -35.37000000     -74.23880000
C      -44.48100000     -35.56960000     -71.33890000
C      -45.65960000     -34.71280000     -69.54560000
C      -44.49950000     -35.13170000     -68.89680000
S      -44.40140000     -36.06470000     -72.96720000
S      -43.29670000     -35.73380000     -70.05140000
H      -44.41850000     -35.15470000     -67.82760000
