40
Properties=species:S:1:pos:R:3 #=T CELL(abcABC):=T 1.889726e+02=T 90.00000=T Traj:=T positionsangstrom=T Step:=T 0=T Bead:=T pbc="F F F"
C      -42.24010000     -30.44940000     -71.52670000
C      -42.15260000     -31.65300000     -72.17510000
C      -42.96100000     -32.03880000     -73.21560000
C      -44.10310000     -31.15480000     -73.59570000
C      -44.22640000     -29.92250000     -72.94870000
C      -43.30110000     -29.59300000     -71.90670000
H      -41.58420000     -30.29700000     -70.64890000
H      -42.81750000     -33.03030000     -73.63660000
H      -45.06310000     -29.25240000     -73.18550000
H      -43.36880000     -28.68570000     -71.30530000
C      -45.05390000     -31.55840000     -74.73820000
H      -44.91320000     -32.58570000     -75.06000000
H      -44.86520000     -30.94350000     -75.64720000
C      -40.98270000     -32.61610000     -71.68890000
H      -40.71530000     -33.24390000     -72.50430000
H      -40.18410000     -31.97470000     -71.41500000
S      -46.84020000     -31.51390000     -74.19650000
S      -41.49560000     -33.52730000     -70.07940000
C      -46.91120000     -32.89260000     -72.86440000
H      -47.68560000     -33.47180000     -73.32200000
H      -45.98660000     -33.46370000     -72.82820000
C      -42.92380000     -34.61680000     -70.38690000
H      -43.02790000     -35.22800000     -69.45080000
H      -42.73680000     -35.40460000     -71.14840000
C      -44.34000000     -34.06610000     -70.66490000
H      -44.38230000     -33.05800000     -70.32940000
H      -44.42400000     -33.82300000     -71.75080000
C      -47.25260000     -32.31720000     -71.48410000
H      -48.03650000     -31.67820000     -71.51510000
H      -46.45970000     -31.78690000     -70.91330000
C      -47.69450000     -33.57250000     -70.71910000
C      -49.02660000     -33.75030000     -70.47690000
C      -46.87440000     -34.66440000     -70.21910000
H      -49.78440000     -33.07920000     -70.71360000
C      -47.64960000     -35.65860000     -69.66810000
C      -45.47280000     -34.92070000     -70.19950000
C      -45.23980000     -36.16790000     -69.57070000
S      -49.31780000     -35.31550000     -69.67250000
S      -46.72030000     -37.05140000     -69.13730000
H      -44.30640000     -36.69030000     -69.51590000
