40
Properties=species:S:1:pos:R:3 #=T CELL(abcABC):=T 1.889726e+02=T 90.00000=T Traj:=T positionsangstrom=T Step:=T 0=T Bead:=T pbc="F F F"
C      -43.65230000     -31.64490000     -70.72330000
C      -44.98030000     -31.19210000     -70.48670000
C      -45.78250000     -31.03340000     -71.65080000
C      -45.35670000     -31.28000000     -72.95010000
C      -44.11750000     -31.85650000     -73.10130000
C      -43.23160000     -32.02500000     -72.02210000
H      -42.93430000     -31.57900000     -69.92310000
H      -46.78250000     -30.62880000     -71.55510000
H      -43.88050000     -32.13360000     -74.16130000
H      -42.25880000     -32.40240000     -72.19750000
C      -46.40700000     -31.03690000     -74.06990000
H      -45.97310000     -30.88820000     -75.12780000
H      -47.01490000     -30.16210000     -73.81600000
C      -45.35450000     -30.78230000     -69.09730000
H      -44.60370000     -30.13540000     -68.73980000
H      -46.30770000     -30.33930000     -69.01210000
S      -47.36100000     -32.62990000     -74.28690000
S      -45.35290000     -32.18440000     -67.94080000
C      -48.01170000     -33.22490000     -72.70410000
H      -47.69340000     -32.61720000     -71.89160000
H      -49.04070000     -33.06850000     -72.56660000
C      -46.94810000     -32.98140000     -68.24350000
H      -47.58920000     -32.10910000     -68.64990000
H      -47.32700000     -33.17860000     -67.22290000
C      -46.84000000     -34.34050000     -68.94710000
H      -46.87540000     -34.97370000     -68.19960000
H      -47.72220000     -34.38770000     -69.50880000
C      -47.56860000     -34.66400000     -72.40700000
H      -47.99100000     -35.29720000     -73.20240000
H      -48.08440000     -35.09840000     -71.47300000
C      -46.09270000     -34.79260000     -72.33530000
C      -45.38660000     -35.12180000     -73.52020000
C      -45.25000000     -34.87800000     -71.11360000
H      -45.75960000     -35.24700000     -74.48520000
C      -43.93370000     -35.30030000     -71.39070000
C      -45.54490000     -34.77040000     -69.64390000
C      -44.40210000     -35.03040000     -68.90650000
S      -43.69510000     -35.44800000     -73.19210000
S      -43.04780000     -35.46150000     -69.92240000
H      -44.35490000     -35.28850000     -67.80710000
