40
Properties=species:S:1:pos:R:3 #=T CELL(abcABC):=T 1.889726e+02=T 90.00000=T Traj:=T positionsangstrom=T Step:=T 0=T Bead:=T pbc="F F F"
C      -42.44800000     -31.25140000     -71.51690000
C      -42.39670000     -32.34220000     -72.36130000
C      -43.31690000     -32.33030000     -73.45370000
C      -44.19210000     -31.33710000     -73.68160000
C      -44.19770000     -30.22870000     -72.80170000
C      -43.31540000     -30.16470000     -71.75720000
H      -41.82870000     -31.40840000     -70.61710000
H      -43.34890000     -33.20050000     -74.22560000
H      -44.86720000     -29.38300000     -73.04490000
H      -43.35570000     -29.32570000     -71.14230000
C      -45.13890000     -31.39380000     -74.81920000
H      -44.98850000     -32.29050000     -75.54100000
H      -44.99230000     -30.50000000     -75.43530000
C      -41.46520000     -33.46830000     -72.23780000
H      -41.57690000     -34.19350000     -72.98470000
H      -40.44360000     -33.11100000     -72.49180000
S      -46.95430000     -31.34290000     -74.30060000
S      -41.32420000     -34.09010000     -70.53370000
C      -47.10380000     -32.72390000     -72.96950000
H      -48.19940000     -33.06300000     -72.95900000
H      -46.64800000     -33.63950000     -73.29370000
C      -42.84220000     -35.19940000     -70.44860000
H      -42.89940000     -35.34720000     -69.32390000
H      -42.74970000     -36.10030000     -71.00710000
C      -44.19530000     -34.57660000     -70.85710000
H      -44.17160000     -33.54310000     -70.45430000
H      -44.14510000     -34.52080000     -71.95070000
C      -46.56230000     -32.23030000     -71.62460000
H      -46.72880000     -31.15600000     -71.36420000
H      -45.50840000     -32.40690000     -71.65950000
C      -47.13440000     -33.12330000     -70.51230000
C      -48.39890000     -32.87770000     -70.06780000
C      -46.67740000     -34.40940000     -70.09940000
H      -49.10440000     -32.12490000     -70.25980000
C      -47.65940000     -35.08680000     -69.37280000
C      -45.47540000     -35.13460000     -70.27170000
C      -45.52070000     -36.35050000     -69.69720000
S      -49.08510000     -34.20000000     -69.08580000
S      -47.15060000     -36.64920000     -68.90730000
H      -44.67700000     -37.02690000     -69.38300000
