40
Properties=species:S:1:pos:R:3 #=T CELL(abcABC):=T 1.889726e+02=T 90.00000=T Traj:=T positionsangstrom=T Step:=T 0=T Bead:=T pbc="F F F"
C      -42.72420000     -30.60040000     -70.86590000
C      -42.56030000     -31.79150000     -71.58690000
C      -43.28290000     -31.96560000     -72.83860000
C      -44.18660000     -31.01570000     -73.28550000
C      -44.39640000     -29.86940000     -72.46100000
C      -43.63170000     -29.65470000     -71.28110000
H      -42.16380000     -30.44830000     -69.96690000
H      -43.07300000     -32.86170000     -73.51750000
H      -45.18180000     -29.16340000     -72.75970000
H      -43.63740000     -28.70590000     -70.66850000
C      -44.88100000     -31.11880000     -74.56000000
H      -44.72190000     -32.01400000     -75.17550000
H      -44.64650000     -30.32750000     -75.35660000
C      -41.47670000     -32.75340000     -71.27440000
H      -41.50090000     -33.66460000     -71.86290000
H      -40.48490000     -32.38290000     -71.59630000
S      -46.74890000     -30.88910000     -74.31610000
S      -41.47270000     -33.32220000     -69.51670000
C      -47.21850000     -32.48950000     -73.59510000
H      -48.25560000     -32.63650000     -73.89510000
H      -46.62420000     -33.23980000     -74.08870000
C      -42.88160000     -34.39220000     -69.44220000
H      -43.19430000     -34.30410000     -68.41500000
H      -42.56880000     -35.42240000     -69.54770000
C      -44.09290000     -34.08420000     -70.32770000
H      -44.37640000     -33.06700000     -70.11310000
H      -43.73940000     -34.28630000     -71.36080000
C      -47.03540000     -32.59870000     -72.06220000
H      -47.74390000     -31.88760000     -71.49050000
H      -45.98030000     -32.33940000     -71.82620000
C      -47.40760000     -33.97260000     -71.46420000
C      -48.69790000     -34.39940000     -71.63030000
C      -46.70450000     -34.82830000     -70.47350000
H      -49.40660000     -33.90820000     -72.25570000
C      -47.52130000     -35.86040000     -70.08270000
C      -45.28050000     -35.00170000     -70.07920000
C      -45.15600000     -36.08460000     -69.32840000
S      -49.18190000     -35.83790000     -70.73010000
S      -46.65690000     -37.05070000     -69.11820000
H      -44.31850000     -36.49510000     -68.86210000
