40
Properties=species:S:1:pos:R:3 #=T CELL(abcABC):=T 1.889726e+02=T 90.00000=T Traj:=T positionsangstrom=T Step:=T 0=T Bead:=T pbc="F F F"
C      -42.70000000     -30.72370000     -70.70440000
C      -42.36740000     -31.75400000     -71.57700000
C      -43.05460000     -31.86060000     -72.83530000
C      -43.99810000     -30.88960000     -73.17240000
C      -44.28960000     -29.82350000     -72.30710000
C      -43.53700000     -29.72800000     -71.09700000
H      -42.18000000     -30.62420000     -69.72230000
H      -42.87840000     -32.75200000     -73.37770000
H      -45.01850000     -29.11700000     -72.68570000
H      -43.86100000     -29.03140000     -70.34860000
C      -44.83670000     -31.12290000     -74.50420000
H      -44.66010000     -32.17600000     -74.95410000
H      -44.52790000     -30.39860000     -75.16940000
C      -41.31450000     -32.77850000     -71.19970000
H      -41.40470000     -33.69390000     -71.85710000
H      -40.38780000     -32.22930000     -71.11380000
S      -46.63820000     -30.84370000     -74.36740000
S      -41.55260000     -33.30420000     -69.47050000
C      -47.29110000     -32.45490000     -73.60820000
H      -48.40130000     -32.33960000     -73.70630000
H      -47.06750000     -33.31130000     -74.23240000
C      -43.05610000     -34.41310000     -69.47010000
H      -43.43560000     -34.45840000     -68.46200000
H      -42.70510000     -35.41430000     -69.80530000
C      -44.27600000     -33.92680000     -70.33700000
H      -44.53650000     -32.86260000     -70.11860000
H      -44.02390000     -33.98260000     -71.40600000
C      -46.91170000     -32.70500000     -72.16460000
H      -47.30800000     -31.84060000     -71.66330000
H      -45.80660000     -32.70320000     -72.14370000
C      -47.46680000     -34.01680000     -71.54740000
C      -48.81130000     -34.40460000     -71.64690000
C      -46.72590000     -34.88160000     -70.62520000
H      -49.59440000     -33.94080000     -72.16790000
C      -47.50700000     -35.98350000     -70.29900000
C      -45.40930000     -34.97970000     -70.08060000
C      -45.30430000     -36.02430000     -69.20070000
S      -49.19680000     -35.96870000     -70.88130000
S      -46.75800000     -36.98310000     -69.09400000
H      -44.42820000     -36.40490000     -68.74070000
