40
Properties=species:S:1:pos:R:3 #=T CELL(abcABC):=T 1.889726e+02=T 90.00000=T Traj:=T positionsangstrom=T Step:=T 0=T Bead:=T pbc="F F F"
C      -46.87520000     -33.77090000     -73.84000000
C      -45.58270000     -34.14800000     -74.13760000
C      -44.59510000     -33.20330000     -74.41760000
C      -44.84700000     -31.83250000     -74.21270000
C      -46.18330000     -31.48480000     -73.77250000
C      -47.19930000     -32.42040000     -73.58240000
H      -47.57420000     -34.52470000     -73.57830000
H      -43.61680000     -33.50110000     -74.80910000
H      -46.32830000     -30.43700000     -73.52640000
H      -48.08030000     -31.96460000     -73.14010000
C      -43.69630000     -30.79020000     -74.19880000
H      -44.08020000     -29.74780000     -74.34880000
H      -43.20100000     -30.92450000     -75.20380000
C      -45.41790000     -35.57550000     -74.60780000
H      -46.32550000     -36.07810000     -74.99260000
H      -44.77220000     -35.51010000     -75.52390000
S      -42.61800000     -31.14390000     -72.76740000
S      -44.59870000     -36.63680000     -73.40210000
C      -43.82280000     -31.31950000     -71.33850000
H      -44.07920000     -30.29650000     -70.89770000
H      -44.75400000     -31.51720000     -71.86820000
C      -45.48220000     -36.32420000     -71.81040000
H      -45.25590000     -37.16370000     -71.27020000
H      -46.61300000     -36.31020000     -72.00520000
C      -44.89150000     -35.13450000     -71.08390000
H      -43.86760000     -35.38190000     -70.70190000
H      -44.95220000     -34.23620000     -71.73990000
C      -43.46280000     -32.28940000     -70.21070000
H      -42.59570000     -32.07240000     -69.58430000
H      -43.23450000     -33.33270000     -70.58290000
C      -44.64590000     -32.44900000     -69.26590000
C      -45.02320000     -31.30530000     -68.52890000
C      -45.56200000     -33.52030000     -69.15300000
H      -44.60740000     -30.38820000     -68.32040000
C      -46.57080000     -33.27050000     -68.18570000
C      -45.69910000     -34.81180000     -69.76580000
C      -46.66230000     -35.54480000     -69.24840000
S      -46.36830000     -31.67380000     -67.52220000
S      -47.53400000     -34.72900000     -67.94030000
H      -46.85270000     -36.55090000     -69.58870000
