40
Properties=species:S:1:pos:R:3 #=T CELL(abcABC):=T 1.889726e+02=T 90.00000=T Traj:=T positionsangstrom=T Step:=T 0=T Bead:=T pbc="F F F"
C      -43.21700000     -30.23180000     -70.55730000
C      -42.69360000     -31.36320000     -71.19240000
C      -42.88400000     -31.66580000     -72.54800000
C      -43.68100000     -30.78150000     -73.26960000
C      -44.25360000     -29.63940000     -72.62680000
C      -43.93320000     -29.28710000     -71.33300000
H      -42.94190000     -30.13190000     -69.49260000
H      -42.48110000     -32.58620000     -72.95000000
H      -44.77100000     -28.87000000     -73.21780000
H      -44.36300000     -28.34980000     -70.98830000
C      -44.12840000     -31.13750000     -74.66760000
H      -43.40040000     -31.86510000     -75.12060000
H      -44.10580000     -30.25540000     -75.29800000
C      -41.62800000     -32.22990000     -70.46940000
H      -41.50860000     -33.15490000     -71.07250000
H      -40.59460000     -31.79470000     -70.31830000
S      -45.94910000     -31.60750000     -74.62730000
S      -42.26640000     -32.76090000     -68.77460000
C      -46.05580000     -33.17620000     -73.59920000
H      -46.50980000     -33.92230000     -74.27690000
H      -45.02220000     -33.39140000     -73.28120000
C      -43.44890000     -34.07260000     -69.20840000
H      -43.44140000     -34.61800000     -68.24430000
H      -43.01110000     -34.70100000     -69.97910000
C      -44.90290000     -33.52220000     -69.57850000
H      -45.18710000     -32.83860000     -68.76010000
H      -44.74910000     -32.93530000     -70.47600000
C      -46.92280000     -32.94700000     -72.33460000
H      -47.77680000     -32.39280000     -72.57530000
H      -46.46480000     -32.31100000     -71.59420000
C      -47.34110000     -34.25360000     -71.88360000
C      -48.35470000     -34.89640000     -72.48100000
C      -46.84660000     -34.99350000     -70.76980000
H      -48.99850000     -34.49010000     -73.33270000
C      -47.44220000     -36.18580000     -70.57550000
C      -45.86490000     -34.71990000     -69.69960000
C      -45.90930000     -35.73140000     -68.74560000
S      -48.71280000     -36.42250000     -71.72530000
S      -47.02570000     -37.01200000     -69.08810000
H      -45.24140000     -35.80080000     -67.87980000
