40
Properties=species:S:1:pos:R:3 #=T CELL(abcABC):=T 1.889726e+02=T 90.00000=T Traj:=T positionsangstrom=T Step:=T 0=T Bead:=T pbc="F F F"
C      -44.07600000     -30.28440000     -70.27530000
C      -43.05560000     -31.21320000     -70.50010000
C      -42.70300000     -31.63480000     -71.83230000
C      -43.32430000     -31.00700000     -72.90670000
C      -44.32800000     -30.03620000     -72.66530000
C      -44.62750000     -29.56570000     -71.37910000
H      -44.40850000     -29.99860000     -69.21170000
H      -41.83370000     -32.32310000     -71.99560000
H      -44.74000000     -29.56670000     -73.50180000
H      -45.35180000     -28.72360000     -71.32870000
C      -43.12680000     -31.55910000     -74.28930000
H      -42.52910000     -32.44580000     -74.33500000
H      -42.79430000     -30.79280000     -74.99250000
C      -42.34880000     -31.76600000     -69.26030000
H      -41.77000000     -32.65900000     -69.67600000
H      -41.55500000     -31.12270000     -68.79630000
S      -44.76840000     -32.14310000     -75.11480000
S      -43.47110000     -32.42770000     -67.91560000
C      -45.48990000     -33.44680000     -74.01530000
H      -46.22620000     -33.91920000     -74.61610000
H      -44.77280000     -34.24950000     -73.78890000
C      -43.87040000     -34.07350000     -68.63010000
H      -44.48890000     -34.53750000     -67.90980000
H      -42.92800000     -34.66020000     -68.52900000
C      -44.43540000     -34.14320000     -70.00650000
H      -44.63080000     -33.11430000     -70.34240000
H      -43.64740000     -34.61030000     -70.58570000
C      -46.10010000     -32.90620000     -72.74500000
H      -46.75680000     -31.98280000     -73.01430000
H      -45.38310000     -32.42710000     -72.05050000
C      -47.01020000     -33.93530000     -72.09030000
C      -48.20610000     -34.26310000     -72.70430000
C      -46.65800000     -34.90110000     -71.06280000
H      -48.76220000     -33.77200000     -73.56080000
C      -47.66110000     -35.88380000     -70.82170000
C      -45.52830000     -35.15090000     -70.13410000
C      -45.78860000     -36.13290000     -69.25430000
S      -49.00400000     -35.71130000     -71.96720000
S      -47.24220000     -37.02810000     -69.64330000
H      -45.01420000     -36.44700000     -68.60470000
