40
Properties=species:S:1:pos:R:3 #=T CELL(abcABC):=T 1.889726e+02=T 90.00000=T Traj:=T positionsangstrom=T Step:=T 0=T Bead:=T pbc="F F F"
C      -44.65710000     -31.19670000     -70.13820000
C      -46.00170000     -31.19830000     -70.41100000
C      -46.54820000     -31.17880000     -71.73810000
C      -45.68700000     -31.40340000     -72.79380000
C      -44.33370000     -31.62410000     -72.48740000
C      -43.80760000     -31.48360000     -71.23420000
H      -44.20970000     -31.12490000     -69.12270000
H      -47.56560000     -30.83730000     -71.91250000
H      -43.78750000     -31.81500000     -73.38280000
H      -42.81540000     -31.64660000     -71.02460000
C      -46.22420000     -31.41800000     -74.18840000
H      -45.69720000     -30.70720000     -74.78410000
H      -47.25710000     -31.20720000     -74.21050000
C      -47.07030000     -31.05230000     -69.30350000
H      -46.66210000     -30.51590000     -68.36550000
H      -47.84780000     -30.43640000     -69.65930000
S      -45.93280000     -33.19270000     -74.87910000
S      -47.86800000     -32.71190000     -68.69470000
C      -46.75540000     -34.30710000     -73.74790000
H      -47.17170000     -33.77630000     -72.85980000
H      -47.68360000     -34.69550000     -74.24710000
C      -48.02280000     -33.86220000     -70.12230000
H      -47.82270000     -33.27590000     -70.97840000
H      -49.03170000     -34.14460000     -70.15620000
C      -47.13340000     -35.07490000     -69.95320000
H      -47.40220000     -35.58040000     -69.01700000
H      -47.38270000     -35.81990000     -70.71180000
C      -45.92690000     -35.50620000     -73.25880000
H      -45.57910000     -36.03900000     -74.14950000
H      -46.62230000     -36.14100000     -72.68510000
C      -44.73910000     -35.22230000     -72.44990000
C      -43.43940000     -35.18330000     -73.02750000
C      -44.66400000     -34.78950000     -71.04630000
H      -43.21230000     -35.39750000     -74.06780000
C      -43.41990000     -34.46140000     -70.62180000
C      -45.64390000     -34.76570000     -69.95810000
C      -45.05060000     -34.32770000     -68.79280000
S      -42.21900000     -34.67310000     -71.82900000
S      -43.30770000     -34.10610000     -68.90350000
H      -45.40390000     -34.43270000     -67.80550000
