40
Properties=species:S:1:pos:R:3 #=T CELL(abcABC):=T 1.889726e+02=T 90.00000=T Traj:=T positionsangstrom=T Step:=T 0=T Bead:=T pbc="F F F"
C      -43.59290000     -30.10370000     -70.14960000
C      -42.80200000     -31.17170000     -70.62240000
C      -42.77810000     -31.43430000     -71.98650000
C      -43.62450000     -30.76470000     -72.89680000
C      -44.38250000     -29.72430000     -72.43460000
C      -44.38460000     -29.41790000     -71.07920000
H      -43.56550000     -29.76870000     -69.06830000
H      -42.08480000     -32.18170000     -72.42530000
H      -44.84190000     -29.08120000     -73.08730000
H      -44.87020000     -28.46030000     -70.90560000
C      -43.59060000     -31.17000000     -74.31540000
H      -42.72530000     -31.79650000     -74.52800000
H      -43.47020000     -30.26180000     -75.00000000
C      -41.89070000     -32.00940000     -69.71280000
H      -41.30640000     -32.82020000     -70.17840000
H      -41.15820000     -31.39870000     -69.24070000
S      -45.11880000     -31.93840000     -74.95850000
S      -42.90670000     -32.47990000     -68.17360000
C      -45.61000000     -33.30430000     -73.85900000
H      -46.21440000     -33.94300000     -74.55540000
H      -44.76080000     -33.90420000     -73.53150000
C      -43.91740000     -34.01650000     -68.64870000
H      -44.68640000     -34.18610000     -67.88570000
H      -43.21110000     -34.86720000     -68.58520000
C      -44.56560000     -34.03890000     -70.00230000
H      -44.81610000     -32.94390000     -70.17640000
H      -43.87180000     -34.15350000     -70.84740000
C      -46.51700000     -32.97860000     -72.63320000
H      -47.30990000     -32.40500000     -73.03270000
H      -46.01430000     -32.46650000     -71.86440000
C      -47.22490000     -34.17480000     -72.14030000
C      -48.45500000     -34.57880000     -72.64420000
C      -46.77840000     -35.01500000     -71.11470000
H      -49.03690000     -34.15890000     -73.44570000
C      -47.60890000     -36.08030000     -70.85580000
C      -45.68740000     -35.04010000     -70.12630000
C      -45.69460000     -36.20490000     -69.37590000
S      -49.02770000     -36.03520000     -71.85920000
S      -47.10080000     -37.17710000     -69.63870000
H      -45.05640000     -36.40430000     -68.53550000
