40
Properties=species:S:1:pos:R:3 #=T CELL(abcABC):=T 1.889726e+02=T 90.00000=T Traj:=T positionsangstrom=T Step:=T 0=T Bead:=T pbc="F F F"
C      -44.78240000     -30.98170000     -70.24120000
C      -46.14660000     -30.97130000     -70.58000000
C      -46.44330000     -31.07800000     -71.94260000
C      -45.47710000     -31.39450000     -72.90810000
C      -44.14730000     -31.31260000     -72.57680000
C      -43.85950000     -31.17130000     -71.23950000
H      -44.41060000     -30.74640000     -69.29600000
H      -47.48390000     -31.03180000     -72.27890000
H      -43.40890000     -31.25600000     -73.34350000
H      -42.82900000     -31.32410000     -70.89150000
C      -45.88960000     -31.47090000     -74.34850000
H      -45.20210000     -30.84580000     -74.96260000
H      -46.90590000     -31.12320000     -74.44420000
C      -47.31130000     -30.71350000     -69.60850000
H      -46.96770000     -29.91170000     -69.06040000
H      -48.25180000     -30.44090000     -70.10200000
S      -45.78660000     -33.18860000     -74.91560000
S      -47.57310000     -32.27750000     -68.52000000
C      -46.77720000     -34.09670000     -73.65230000
H      -46.75950000     -33.58710000     -72.68520000
H      -47.79610000     -34.16220000     -74.02730000
C      -48.10560000     -33.58490000     -69.83370000
H      -48.14880000     -32.98310000     -70.76090000
H      -49.09690000     -33.93550000     -69.59010000
C      -47.23360000     -34.84900000     -69.88300000
H      -47.51670000     -35.51010000     -69.03930000
H      -47.60890000     -35.41550000     -70.75090000
C      -46.15990000     -35.43660000     -73.19020000
H      -45.95030000     -36.10480000     -74.06680000
H      -46.95140000     -35.88330000     -72.63920000
C      -44.88500000     -35.29340000     -72.36440000
C      -43.63100000     -35.22600000     -73.00870000
C      -44.80530000     -34.96380000     -70.98150000
H      -43.30350000     -35.44780000     -74.03050000
C      -43.45380000     -34.84820000     -70.60820000
C      -45.74900000     -34.77290000     -69.93180000
C      -45.09770000     -34.70210000     -68.69270000
S      -42.32380000     -35.10010000     -71.86530000
S      -43.30080000     -34.66890000     -68.86820000
H      -45.58760000     -34.50240000     -67.73970000
