40
Properties=species:S:1:pos:R:3 #=T CELL(abcABC):=T 1.889726e+02=T 90.00000=T Traj:=T positionsangstrom=T Step:=T 0=T Bead:=T pbc="F F F"
C      -43.27650000     -30.02740000     -70.31110000
C      -42.74780000     -31.26050000     -70.81520000
C      -43.06120000     -31.62040000     -72.15760000
C      -43.70370000     -30.72840000     -73.04120000
C      -44.33060000     -29.58690000     -72.47290000
C      -43.97660000     -29.17850000     -71.12610000
H      -43.09880000     -29.78540000     -69.31750000
H      -42.78070000     -32.62320000     -72.48260000
H      -44.82210000     -28.82360000     -73.16540000
H      -44.38270000     -28.27260000     -70.75340000
C      -43.97280000     -30.97710000     -74.58140000
H      -43.14080000     -31.53420000     -75.04680000
H      -44.02950000     -30.00380000     -75.10630000
C      -41.84100000     -32.08730000     -70.00370000
H      -41.73050000     -32.96400000     -70.58960000
H      -40.77040000     -31.76180000     -69.83850000
S      -45.54250000     -31.92270000     -74.86880000
S      -42.54910000     -32.65070000     -68.35600000
C      -45.56310000     -33.14830000     -73.57840000
H      -45.91860000     -34.09670000     -73.99380000
H      -44.57220000     -33.25150000     -73.08280000
C      -43.65080000     -34.09180000     -68.93070000
H      -43.96260000     -34.51940000     -67.99990000
H      -43.05400000     -34.72650000     -69.59870000
C      -44.89030000     -33.68400000     -69.65130000
H      -45.38600000     -32.83330000     -69.18340000
H      -44.49130000     -33.33880000     -70.66000000
C      -46.67790000     -32.91000000     -72.51570000
H      -47.46570000     -32.32160000     -72.96450000
H      -46.31980000     -32.28360000     -71.72650000
C      -47.26030000     -34.22070000     -72.04140000
C      -48.39500000     -34.71500000     -72.67030000
C      -46.78820000     -34.97430000     -70.90680000
H      -48.87520000     -34.25960000     -73.46270000
C      -47.57720000     -36.12610000     -70.80080000
C      -45.84840000     -34.88600000     -69.81950000
C      -45.85040000     -36.00420000     -69.01060000
S      -48.89570000     -36.25770000     -71.94870000
S      -47.01890000     -37.22650000     -69.51270000
H      -45.25270000     -36.15040000     -68.07510000
