40
Properties=species:S:1:pos:R:3 #=T CELL(abcABC):=T 1.889726e+02=T 90.00000=T Traj:=T positionsangstrom=T Step:=T 0=T Bead:=T pbc="F F F"
C      -44.77100000     -31.54120000     -70.19550000
C      -46.15440000     -31.38840000     -70.43660000
C      -46.64980000     -31.28400000     -71.74270000
C      -45.80280000     -31.41220000     -72.86130000
C      -44.39720000     -31.43570000     -72.58760000
C      -43.89240000     -31.56460000     -71.26680000
H      -44.52760000     -31.58450000     -69.16810000
H      -47.73250000     -31.18330000     -71.89320000
H      -43.65310000     -31.44610000     -73.39120000
H      -42.83980000     -31.29080000     -70.94610000
C      -46.35100000     -31.63590000     -74.27040000
H      -45.92070000     -30.84830000     -74.97330000
H      -47.47370000     -31.57960000     -74.29460000
C      -47.04280000     -31.20440000     -69.24060000
H      -46.51660000     -30.81410000     -68.38980000
H      -47.80890000     -30.40990000     -69.57530000
S      -45.81440000     -33.19370000     -74.94440000
S      -47.91930000     -32.70130000     -68.55680000
C      -46.70280000     -34.22140000     -73.70100000
H      -46.81380000     -33.53860000     -72.85110000
H      -47.67330000     -34.52310000     -74.09030000
C      -47.96930000     -33.82800000     -70.05040000
H      -47.79360000     -33.23960000     -70.97370000
H      -49.03430000     -34.33690000     -70.06280000
C      -47.05660000     -35.08490000     -69.96660000
H      -47.50440000     -35.60260000     -69.07000000
H      -47.25440000     -35.82570000     -70.76760000
C      -45.89190000     -35.44150000     -73.26650000
H      -45.64710000     -36.09520000     -74.20740000
H      -46.58780000     -36.12470000     -72.82020000
C      -44.70750000     -35.14040000     -72.44400000
C      -43.46200000     -34.86060000     -73.04590000
C      -44.63410000     -34.90640000     -71.00740000
H      -43.22020000     -35.03630000     -74.11710000
C      -43.37670000     -34.56580000     -70.55140000
C      -45.55780000     -34.84490000     -69.86890000
C      -44.95330000     -34.43940000     -68.71620000
S      -42.27230000     -34.41110000     -71.93360000
S      -43.22150000     -34.09380000     -68.88480000
H      -45.37760000     -34.28180000     -67.75600000
