40
Properties=species:S:1:pos:R:3 #=T CELL(abcABC):=T 1.889726e+02=T 90.00000=T Traj:=T positionsangstrom=T Step:=T 0=T Bead:=T pbc="F F F"
C      -44.51600000     -34.47630000     -67.77290000
C      -43.46090000     -33.84060000     -68.42090000
C      -42.87050000     -34.59280000     -69.50180000
C      -43.33690000     -35.89990000     -69.77400000
C      -44.39500000     -36.42540000     -69.09270000
C      -44.96690000     -35.75830000     -68.01600000
H      -45.10100000     -33.92210000     -67.07190000
H      -42.01500000     -34.28430000     -70.05580000
H      -44.74720000     -37.41180000     -69.32090000
H      -45.84170000     -36.02960000     -67.46270000
C      -42.76550000     -36.72650000     -70.92950000
H      -43.04370000     -37.82150000     -70.85200000
H      -41.64700000     -36.70850000     -70.78300000
C      -43.08320000     -32.51900000     -67.98150000
H      -42.83250000     -32.57760000     -66.91700000
H      -42.20290000     -32.09890000     -68.61350000
S      -43.03200000     -35.90980000     -72.60460000
S      -44.38500000     -31.17450000     -68.03710000
C      -44.87940000     -35.91340000     -73.06450000
H      -44.86170000     -35.63200000     -74.18510000
H      -45.18900000     -36.92240000     -72.97460000
C      -44.93300000     -31.46500000     -69.73620000
H      -44.23150000     -32.24160000     -69.96360000
H      -44.73640000     -30.60850000     -70.45050000
C      -46.40460000     -31.91510000     -70.01460000
H      -46.56230000     -32.91130000     -69.85490000
H      -46.98930000     -31.25760000     -69.41730000
C      -45.68610000     -34.91870000     -72.19330000
H      -45.03530000     -34.19660000     -71.79200000
H      -46.06710000     -35.35340000     -71.23580000
C      -46.59690000     -33.97200000     -73.06030000
C      -46.89900000     -34.12120000     -74.37630000
C      -46.78420000     -32.47660000     -72.74150000
H      -46.75850000     -35.04820000     -74.91650000
C      -47.29030000     -31.82670000     -73.82530000
C      -46.76350000     -31.69800000     -71.51950000
C      -47.18570000     -30.38620000     -71.74400000
S      -47.57490000     -32.85760000     -75.23940000
S      -47.58300000     -30.13230000     -73.43570000
H      -47.14320000     -29.61840000     -71.00830000
