40
Properties=species:S:1:pos:R:3 #=T CELL(abcABC):=T 1.889726e+02=T 90.00000=T Traj:=T positionsangstrom=T Step:=T 0=T Bead:=T pbc="F F F"
C      -44.59670000     -34.57080000     -67.85440000
C      -43.54970000     -33.95130000     -68.58640000
C      -43.00310000     -34.68090000     -69.65930000
C      -43.35460000     -35.96750000     -69.95130000
C      -44.38550000     -36.54860000     -69.10920000
C      -45.04220000     -35.86810000     -68.13670000
H      -44.98130000     -34.07840000     -66.91890000
H      -42.18060000     -34.22110000     -70.24500000
H      -44.66480000     -37.60110000     -69.39790000
H      -45.85460000     -36.31790000     -67.56410000
C      -42.71490000     -36.69230000     -71.08760000
H      -43.07680000     -37.70400000     -71.11250000
H      -41.69420000     -36.79100000     -70.96770000
C      -42.96590000     -32.69090000     -68.19350000
H      -42.41870000     -32.72040000     -67.28460000
H      -42.18870000     -32.30940000     -68.84440000
S      -43.02210000     -35.86130000     -72.70260000
S      -44.43830000     -31.47780000     -68.05900000
C      -44.90540000     -35.91050000     -72.69990000
H      -45.31130000     -36.14970000     -73.63030000
H      -45.27160000     -36.73210000     -72.03440000
C      -44.94980000     -31.20540000     -69.78400000
H      -44.11630000     -31.48620000     -70.52460000
H      -45.17660000     -30.17570000     -69.78390000
C      -46.18190000     -32.08410000     -70.14340000
H      -46.00710000     -33.11000000     -70.07170000
H      -46.92100000     -31.91830000     -69.24110000
C      -45.61130000     -34.63970000     -72.08780000
H      -44.74180000     -34.07320000     -71.67600000
H      -46.24310000     -34.98410000     -71.23840000
C      -46.41410000     -33.75820000     -73.04410000
C      -46.80140000     -34.06500000     -74.29800000
C      -46.89810000     -32.45680000     -72.60790000
H      -46.40120000     -34.96300000     -74.79920000
C      -47.52600000     -31.77800000     -73.65580000
C      -46.57490000     -31.63260000     -71.50060000
C      -47.03160000     -30.31580000     -71.67730000
S      -47.69570000     -32.70710000     -75.13270000
S      -47.56060000     -30.06210000     -73.32510000
H      -46.93980000     -29.58980000     -70.91700000
