40
Properties=species:S:1:pos:R:3 #=T CELL(abcABC):=T 1.889726e+02=T 90.00000=T Traj:=T positionsangstrom=T Step:=T 0=T Bead:=T pbc="F F F"
C      -45.52620000     -31.17670000     -70.26950000
C      -46.85180000     -31.31490000     -70.83820000
C      -46.92780000     -31.55610000     -72.22360000
C      -45.86110000     -31.57570000     -73.04920000
C      -44.57870000     -31.41050000     -72.47670000
C      -44.40980000     -31.25240000     -71.09630000
H      -45.43580000     -31.05580000     -69.24350000
H      -47.91050000     -31.78190000     -72.62170000
H      -43.64040000     -31.24750000     -73.08110000
H      -43.37890000     -31.16190000     -70.62810000
C      -46.08730000     -31.83380000     -74.52390000
H      -45.55020000     -31.11300000     -75.20450000
H      -47.24270000     -31.72600000     -74.77380000
C      -48.05410000     -31.18270000     -69.95250000
H      -47.92300000     -30.29970000     -69.26970000
H      -48.99830000     -31.08490000     -70.54500000
S      -45.70910000     -33.57200000     -74.88830000
S      -48.17010000     -32.77150000     -68.95930000
C      -46.47130000     -34.61320000     -73.65200000
H      -47.05000000     -34.03610000     -72.92940000
H      -47.14050000     -35.28220000     -74.29230000
C      -47.81650000     -34.18440000     -70.11930000
H      -47.62080000     -33.70560000     -71.02480000
H      -48.71810000     -34.76600000     -70.26360000
C      -46.72880000     -35.15790000     -69.73030000
H      -47.07060000     -35.60210000     -68.74590000
H      -46.79530000     -35.96900000     -70.48600000
C      -45.61930000     -35.61050000     -72.90050000
H      -45.26980000     -36.28810000     -73.64560000
H      -46.27300000     -36.22780000     -72.31000000
C      -44.40880000     -35.17070000     -72.17620000
C      -43.18030000     -35.02650000     -72.75220000
C      -44.36930000     -34.66390000     -70.81180000
H      -42.95900000     -35.30710000     -73.77930000
C      -43.13440000     -34.15490000     -70.39630000
C      -45.29060000     -34.70610000     -69.70830000
C      -44.81920000     -34.14200000     -68.51930000
S      -41.93440000     -34.22290000     -71.75130000
S      -43.09860000     -33.76190000     -68.69690000
H      -45.35210000     -34.18100000     -67.54910000
