40
Properties=species:S:1:pos:R:3 #=T CELL(abcABC):=T 1.889726e+02=T 90.00000=T Traj:=T positionsangstrom=T Step:=T 0=T Bead:=T pbc="F F F"
C      -47.10500000     -33.93990000     -73.79290000
C      -45.79510000     -34.31060000     -74.23880000
C      -44.83840000     -33.27510000     -74.36010000
C      -45.10250000     -31.96390000     -73.97510000
C      -46.37210000     -31.67990000     -73.41950000
C      -47.34350000     -32.71220000     -73.30900000
H      -47.93690000     -34.68030000     -73.69830000
H      -43.86890000     -33.60440000     -74.66330000
H      -46.62700000     -30.77730000     -72.91470000
H      -48.24450000     -32.47890000     -72.69360000
C      -44.08150000     -30.87990000     -74.15650000
H      -44.29450000     -29.81080000     -74.24790000
H      -43.40560000     -30.99260000     -74.97240000
C      -45.44370000     -35.73550000     -74.70270000
H      -46.37640000     -36.34690000     -74.64080000
H      -45.05360000     -35.77580000     -75.71600000
S      -42.81540000     -31.00940000     -72.65860000
S      -44.15870000     -36.48880000     -73.57760000
C      -43.83450000     -30.87900000     -71.14360000
H      -43.80670000     -29.84980000     -70.76790000
H      -44.85530000     -31.01070000     -71.55290000
C      -45.03780000     -36.16610000     -71.96000000
H      -44.91870000     -37.11460000     -71.27780000
H      -46.04890000     -36.02220000     -72.25460000
C      -44.52220000     -34.97380000     -71.13440000
H      -43.53080000     -35.12130000     -70.73240000
H      -44.29800000     -34.07250000     -71.71740000
C      -43.48600000     -31.94380000     -70.09970000
H      -42.62420000     -31.67980000     -69.41270000
H      -43.12760000     -32.89330000     -70.59690000
C      -44.70280000     -32.17280000     -69.24720000
C      -45.15890000     -31.33060000     -68.23470000
C      -45.44390000     -33.39820000     -69.19860000
H      -44.69930000     -30.31220000     -68.11610000
C      -46.51910000     -33.40530000     -68.32480000
C      -45.46430000     -34.65250000     -69.97090000
C      -46.48550000     -35.46380000     -69.59770000
S      -46.47330000     -31.98970000     -67.33630000
S      -47.48540000     -34.84280000     -68.30030000
H      -46.82930000     -36.42740000     -69.93830000
