40
Properties=species:S:1:pos:R:3 #=T CELL(abcABC):=T 1.889726e+02=T 90.00000=T Traj:=T positionsangstrom=T Step:=T 0=T Bead:=T pbc="F F F"
C      -45.44730000     -30.89830000     -70.55850000
C      -46.77010000     -31.26250000     -71.06010000
C      -46.78790000     -31.77410000     -72.34580000
C      -45.71330000     -31.78750000     -73.22680000
C      -44.40980000     -31.52050000     -72.72790000
C      -44.29960000     -31.09920000     -71.43030000
H      -45.31550000     -30.60370000     -69.53190000
H      -47.71530000     -32.17030000     -72.78180000
H      -43.53050000     -31.52650000     -73.36470000
H      -43.28850000     -30.88890000     -70.98700000
C      -45.88560000     -32.32990000     -74.63230000
H      -45.17020000     -31.69800000     -75.11260000
H      -46.95950000     -32.29870000     -74.89590000
C      -47.91620000     -31.16660000     -70.12770000
H      -47.69910000     -30.40930000     -69.35850000
H      -48.74230000     -30.78180000     -70.72690000
S      -45.23570000     -34.06950000     -74.92680000
S      -48.39930000     -32.84410000     -69.25550000
C      -46.22520000     -34.92880000     -73.60540000
H      -46.77090000     -34.13390000     -73.08590000
H      -46.97150000     -35.49710000     -74.14580000
C      -47.98260000     -34.26390000     -70.39020000
H      -47.83530000     -33.81120000     -71.37850000
H      -48.92280000     -34.79530000     -70.44770000
C      -46.87450000     -35.22100000     -69.81550000
H      -47.30210000     -35.72000000     -68.86240000
H      -46.75170000     -36.13600000     -70.35950000
C      -45.34520000     -35.85260000     -72.73460000
H      -44.95820000     -36.54570000     -73.47560000
H      -46.01020000     -36.41180000     -72.08870000
C      -44.23900000     -35.12900000     -71.92900000
C      -43.01420000     -34.88440000     -72.44050000
C      -44.44640000     -34.57370000     -70.54760000
H      -42.66500000     -35.05430000     -73.46490000
C      -43.31450000     -33.89540000     -70.11710000
C      -45.60010000     -34.47590000     -69.62530000
C      -45.17340000     -33.84670000     -68.47770000
S      -42.04140000     -34.03790000     -71.26180000
S      -43.55380000     -33.26920000     -68.58720000
H      -45.83010000     -33.66500000     -67.63850000
