40
Properties=species:S:1:pos:R:3 #=T CELL(abcABC):=T 1.889726e+02=T 90.00000=T Traj:=T positionsangstrom=T Step:=T 0=T Bead:=T pbc="F F F"
C      -45.51670000     -31.09410000     -70.42450000
C      -46.73870000     -31.37170000     -70.99500000
C      -46.83810000     -31.75280000     -72.37760000
C      -45.69620000     -31.86510000     -73.12990000
C      -44.44430000     -31.61820000     -72.58190000
C      -44.32090000     -31.21570000     -71.25340000
H      -45.45700000     -30.78080000     -69.33080000
H      -47.74810000     -31.98110000     -72.93290000
H      -43.57380000     -31.68980000     -73.15960000
H      -43.41030000     -30.92560000     -70.74180000
C      -45.81360000     -32.30110000     -74.58790000
H      -45.22660000     -31.66280000     -75.28490000
H      -46.78630000     -32.23470000     -75.00410000
C      -48.12600000     -31.26360000     -70.26170000
H      -48.12750000     -30.47620000     -69.47770000
H      -48.82910000     -31.15650000     -71.05840000
S      -45.27400000     -34.14190000     -74.89140000
S      -48.50600000     -32.73920000     -69.25130000
C      -46.07740000     -35.14880000     -73.59420000
H      -46.78410000     -34.56540000     -73.00610000
H      -46.63440000     -35.94720000     -74.16090000
C      -48.07180000     -34.15750000     -70.45260000
H      -47.74950000     -33.71610000     -71.40080000
H      -49.03560000     -34.70810000     -70.56390000
C      -46.92460000     -35.01520000     -69.89880000
H      -47.25210000     -35.46530000     -68.96000000
H      -46.71550000     -35.84430000     -70.63070000
C      -45.00870000     -35.95800000     -72.85400000
H      -44.37420000     -36.30520000     -73.67550000
H      -45.39610000     -36.88210000     -72.30790000
C      -44.14160000     -35.16230000     -71.93680000
C      -42.86420000     -34.88810000     -72.36270000
C      -44.50880000     -34.55410000     -70.65150000
H      -42.47200000     -35.04040000     -73.32230000
C      -43.42110000     -33.81540000     -70.21550000
C      -45.58170000     -34.41190000     -69.72330000
C      -45.17360000     -33.84550000     -68.51380000
S      -41.98110000     -33.88640000     -71.24900000
S      -43.56570000     -33.22960000     -68.59880000
H      -45.90220000     -33.57420000     -67.71250000
