40
Properties=species:S:1:pos:R:3 #=T CELL(abcABC):=T 1.889726e+02=T 90.00000=T Traj:=T positionsangstrom=T Step:=T 0=T Bead:=T pbc="F F F"
C      -45.85110000     -30.97630000     -70.54140000
C      -47.01090000     -31.42090000     -71.19460000
C      -47.04080000     -31.67070000     -72.55020000
C      -45.75350000     -31.82460000     -73.26180000
C      -44.55400000     -31.62260000     -72.52040000
C      -44.65090000     -31.05680000     -71.17390000
H      -46.00460000     -30.57490000     -69.54090000
H      -47.95990000     -31.97300000     -73.05080000
H      -43.57210000     -31.58540000     -73.02660000
H      -43.76130000     -30.77840000     -70.63990000
C      -45.81580000     -32.32430000     -74.68930000
H      -45.18820000     -31.68470000     -75.27260000
H      -46.92000000     -32.26880000     -74.94470000
C      -48.23210000     -31.43780000     -70.38700000
H      -48.16900000     -30.54760000     -69.78800000
H      -49.20260000     -31.35710000     -70.89050000
S      -45.01440000     -33.97970000     -74.81670000
S      -48.18080000     -32.79170000     -69.21470000
C      -45.96250000     -34.99140000     -73.63250000
H      -46.48330000     -34.40900000     -72.83510000
H      -46.75280000     -35.59900000     -74.14620000
C      -48.00330000     -34.23370000     -70.39140000
H      -47.95960000     -33.75730000     -71.38750000
H      -48.95450000     -34.79430000     -70.51360000
C      -46.83080000     -35.13840000     -69.95310000
H      -47.15880000     -35.74910000     -69.07020000
H      -46.80220000     -35.94710000     -70.71640000
C      -45.01260000     -35.92170000     -72.92120000
H      -44.26700000     -36.35220000     -73.67190000
H      -45.61060000     -36.74680000     -72.53420000
C      -44.15050000     -35.20550000     -71.89830000
C      -42.90040000     -34.93100000     -72.32240000
C      -44.45590000     -34.57320000     -70.65550000
H      -42.41280000     -35.29500000     -73.17090000
C      -43.43820000     -33.79450000     -70.17990000
C      -45.51180000     -34.48630000     -69.73430000
C      -45.21410000     -33.80880000     -68.53750000
S      -42.01340000     -34.00590000     -71.12310000
S      -43.64960000     -33.22660000     -68.55690000
H      -45.84680000     -33.56290000     -67.71360000
