40
Properties=species:S:1:pos:R:3 #=T CELL(abcABC):=T 1.889726e+02=T 90.00000=T Traj:=T positionsangstrom=T Step:=T 0=T Bead:=T pbc="F F F"
C      -45.39640000     -30.93710000     -70.43630000
C      -46.66140000     -31.21430000     -70.94470000
C      -46.72950000     -31.56490000     -72.35150000
C      -45.59830000     -31.74580000     -73.18240000
C      -44.36910000     -31.36210000     -72.64070000
C      -44.28570000     -30.91350000     -71.29560000
H      -45.32630000     -30.71690000     -69.39600000
H      -47.76590000     -31.73710000     -72.68240000
H      -43.52230000     -31.32990000     -73.29290000
H      -43.31490000     -30.65350000     -70.90170000
C      -45.76570000     -32.13060000     -74.56090000
H      -45.24940000     -31.56070000     -75.42350000
H      -46.85390000     -32.14270000     -74.79280000
C      -47.96760000     -31.29730000     -70.14830000
H      -48.13150000     -30.47300000     -69.44130000
H      -48.81610000     -31.39060000     -70.84730000
S      -45.16680000     -33.92330000     -74.84540000
S      -48.11460000     -32.77330000     -68.97560000
C      -46.33250000     -34.94090000     -73.80000000
H      -46.82690000     -34.31170000     -73.09520000
H      -47.04020000     -35.42440000     -74.49090000
C      -48.09900000     -34.30610000     -70.02470000
H      -47.85040000     -33.99220000     -71.04400000
H      -49.09540000     -34.83500000     -70.00400000
C      -46.92630000     -35.25720000     -69.59700000
H      -47.00960000     -35.61800000     -68.57980000
H      -47.00420000     -36.06590000     -70.37230000
C      -45.49450000     -35.90930000     -72.97780000
H      -44.91660000     -36.57070000     -73.62150000
H      -46.22800000     -36.50270000     -72.38340000
C      -44.50780000     -35.14840000     -72.04470000
C      -43.26700000     -35.00090000     -72.56320000
C      -44.58970000     -34.58030000     -70.72070000
H      -43.00630000     -35.38410000     -73.58500000
C      -43.38830000     -33.99130000     -70.29510000
C      -45.56560000     -34.65120000     -69.64710000
C      -45.09010000     -34.01020000     -68.50800000
S      -42.19050000     -34.12880000     -71.51240000
S      -43.50150000     -33.36500000     -68.72280000
H      -45.62900000     -33.78600000     -67.59530000
