40
Properties=species:S:1:pos:R:3 #=T CELL(abcABC):=T 1.889726e+02=T 90.00000=T Traj:=T positionsangstrom=T Step:=T 0=T Bead:=T pbc="F F F"
C      -45.56090000     -31.12850000     -70.30460000
C      -46.83890000     -31.19590000     -70.89680000
C      -46.87100000     -31.40090000     -72.26080000
C      -45.75920000     -31.60370000     -73.08730000
C      -44.51660000     -31.40300000     -72.48270000
C      -44.40310000     -31.13600000     -71.15160000
H      -45.41660000     -31.03000000     -69.22620000
H      -47.80040000     -31.55360000     -72.82540000
H      -43.67630000     -31.71640000     -73.07580000
H      -43.45460000     -31.00280000     -70.70180000
C      -45.93380000     -32.00260000     -74.53430000
H      -45.31250000     -31.42670000     -75.14050000
H      -46.90490000     -31.78130000     -74.95900000
C      -48.02730000     -31.29120000     -69.99690000
H      -48.07630000     -30.46950000     -69.28160000
H      -48.95830000     -31.22840000     -70.53460000
S      -45.46680000     -33.75630000     -74.93340000
S      -48.09270000     -32.74440000     -68.83620000
C      -46.51560000     -34.72660000     -73.65440000
H      -46.80190000     -33.98230000     -72.93360000
H      -47.40460000     -35.12690000     -74.08850000
C      -47.94000000     -34.21150000     -69.98610000
H      -47.64430000     -33.75100000     -71.02700000
H      -48.92140000     -34.73230000     -70.19030000
C      -46.84230000     -35.19910000     -69.60740000
H      -47.00140000     -35.51470000     -68.57210000
H      -46.91470000     -36.09130000     -70.20720000
C      -45.58250000     -35.74940000     -72.99610000
H      -45.06410000     -36.30040000     -73.83860000
H      -46.14790000     -36.54400000     -72.44200000
C      -44.46070000     -35.14850000     -72.20770000
C      -43.20490000     -34.94240000     -72.75690000
C      -44.49420000     -34.66190000     -70.77190000
H      -42.91570000     -35.16960000     -73.75810000
C      -43.27520000     -34.06620000     -70.44570000
C      -45.42300000     -34.62860000     -69.70370000
C      -44.83790000     -34.02560000     -68.55740000
S      -42.03800000     -34.31560000     -71.63300000
S      -43.19990000     -33.57020000     -68.81570000
H      -45.37650000     -34.07500000     -67.59930000
