40
Properties=species:S:1:pos:R:3 #=T CELL(abcABC):=T 1.889726e+02=T 90.00000=T Traj:=T positionsangstrom=T Step:=T 0=T Bead:=T pbc="F F F"
C      -45.82500000     -30.95790000     -70.66150000
C      -46.99380000     -31.45400000     -71.26380000
C      -47.14390000     -31.75030000     -72.59990000
C      -45.97580000     -31.75640000     -73.38580000
C      -44.73680000     -31.20910000     -72.74640000
C      -44.72030000     -30.79450000     -71.41860000
H      -45.90920000     -30.77210000     -69.62120000
H      -48.15840000     -31.85750000     -72.96560000
H      -43.85140000     -31.32120000     -73.38730000
H      -43.75760000     -30.37240000     -71.06750000
C      -45.92410000     -32.30230000     -74.78200000
H      -45.56500000     -31.64550000     -75.58840000
H      -46.85760000     -32.64750000     -75.17850000
C      -48.23430000     -31.48530000     -70.43230000
H      -48.16760000     -30.55140000     -69.87750000
H      -49.18240000     -31.62270000     -71.05590000
S      -44.85600000     -33.83230000     -74.78690000
S      -48.25660000     -32.87530000     -69.19280000
C      -45.91890000     -34.95350000     -73.66180000
H      -46.62650000     -34.30320000     -73.16750000
H      -46.41720000     -35.52290000     -74.42960000
C      -47.96670000     -34.38480000     -70.32560000
H      -47.78520000     -34.09860000     -71.33320000
H      -48.83420000     -35.10630000     -70.27140000
C      -46.83200000     -35.24250000     -69.73210000
H      -47.25380000     -35.40720000     -68.71530000
H      -46.80100000     -36.23830000     -70.13900000
C      -45.21720000     -35.81870000     -72.68000000
H      -44.76350000     -36.64650000     -73.20810000
H      -45.95860000     -36.21940000     -71.95530000
C      -44.06440000     -35.21240000     -71.89350000
C      -42.80370000     -34.93970000     -72.29530000
C      -44.33620000     -34.71300000     -70.54940000
H      -42.44020000     -35.05780000     -73.29840000
C      -43.29110000     -33.94990000     -70.08300000
C      -45.49520000     -34.63540000     -69.63130000
C      -45.24680000     -33.98800000     -68.43590000
S      -41.93050000     -34.02930000     -71.14340000
S      -43.64720000     -33.21560000     -68.57240000
H      -46.01890000     -33.69020000     -67.75990000
