40
Properties=species:S:1:pos:R:3 #=T CELL(abcABC):=T 1.889726e+02=T 90.00000=T Traj:=T positionsangstrom=T Step:=T 0=T Bead:=T pbc="F F F"
C      -42.85330000     -35.27790000     -69.10970000
C      -44.12980000     -34.92510000     -68.60730000
C      -44.38690000     -33.66590000     -68.05170000
C      -43.35040000     -32.66850000     -68.15650000
C      -42.12150000     -33.05150000     -68.67740000
C      -41.87340000     -34.32320000     -69.09160000
H      -42.75080000     -36.18590000     -69.72110000
H      -45.34570000     -33.43920000     -67.69390000
H      -41.38380000     -32.24150000     -68.81100000
H      -40.88390000     -34.48540000     -69.50020000
C      -43.61720000     -31.22660000     -67.78640000
H      -42.80600000     -30.55540000     -68.21400000
H      -43.68410000     -31.04480000     -66.72020000
C      -45.18710000     -35.98210000     -68.65170000
H      -44.83040000     -36.81660000     -68.00500000
H      -46.15210000     -35.67430000     -68.37090000
S      -45.19200000     -30.56450000     -68.53540000
S      -45.35910000     -36.96320000     -70.23090000
C      -44.98960000     -30.80050000     -70.38630000
H      -45.17520000     -29.80360000     -70.67070000
H      -43.96790000     -30.93350000     -70.66480000
C      -45.53000000     -35.75550000     -71.66240000
H      -45.30800000     -36.48910000     -72.50710000
H      -44.69220000     -35.10190000     -71.56190000
C      -46.86850000     -35.11010000     -71.82300000
H      -47.69240000     -35.85090000     -71.67790000
H      -47.04980000     -34.49130000     -70.88830000
C      -45.83610000     -32.01370000     -70.89500000
H      -46.83640000     -31.87230000     -70.50860000
H      -45.25810000     -32.99160000     -70.62340000
C      -45.90430000     -32.00060000     -72.45860000
C      -45.75710000     -30.82720000     -73.18710000
C      -46.31870000     -33.10500000     -73.33550000
H      -45.27470000     -29.92360000     -72.76310000
C      -46.41330000     -32.80080000     -74.70370000
C      -46.93190000     -34.39500000     -73.09920000
C      -47.40690000     -35.01230000     -74.24660000
S      -46.03840000     -31.07910000     -74.87260000
S      -47.17340000     -34.04960000     -75.72990000
H      -47.94150000     -35.97520000     -74.35660000
