40
Properties=species:S:1:pos:R:3 #=T CELL(abcABC):=T 1.889726e+02=T 90.00000=T Traj:=T positionsangstrom=T Step:=T 0=T Bead:=T pbc="F F F"
C      -46.23810000     -30.76000000     -70.76270000
C      -47.39730000     -31.25420000     -71.39330000
C      -47.33790000     -31.60190000     -72.73970000
C      -46.16680000     -31.67890000     -73.44160000
C      -44.99380000     -31.16580000     -72.78070000
C      -45.06740000     -30.66120000     -71.50440000
H      -46.28230000     -30.55820000     -69.72140000
H      -48.16180000     -32.10440000     -73.22770000
H      -44.02440000     -31.29570000     -73.20270000
H      -44.21000000     -30.18090000     -71.05670000
C      -46.17280000     -32.25830000     -74.79430000
H      -45.74210000     -31.55930000     -75.54880000
H      -47.15470000     -32.55950000     -75.03360000
C      -48.56120000     -31.64690000     -70.53240000
H      -49.09000000     -30.86190000     -69.93940000
H      -49.49870000     -31.99310000     -71.10580000
S      -45.08870000     -33.78240000     -74.94350000
S      -48.03150000     -32.94540000     -69.29280000
C      -45.95110000     -34.92550000     -73.72050000
H      -46.59400000     -34.32550000     -73.03480000
H      -46.56340000     -35.44870000     -74.37420000
C      -47.45290000     -34.29950000     -70.46100000
H      -46.88290000     -33.73520000     -71.28000000
H      -48.43750000     -34.68040000     -70.95540000
C      -46.71790000     -35.42330000     -69.72120000
H      -47.20950000     -35.66080000     -68.76810000
H      -46.80270000     -36.28770000     -70.42700000
C      -44.91780000     -35.72930000     -72.84640000
H      -44.20310000     -36.22490000     -73.49790000
H      -45.37410000     -36.45760000     -72.21420000
C      -44.06240000     -34.95950000     -71.91400000
C      -42.87080000     -34.42600000     -72.29770000
C      -44.27940000     -34.73510000     -70.47890000
H      -42.46090000     -34.36300000     -73.27170000
C      -43.26390000     -33.92540000     -69.89830000
C      -45.28290000     -35.03000000     -69.47070000
C      -44.86790000     -34.56530000     -68.26520000
S      -41.90760000     -33.67120000     -71.05790000
S      -43.34240000     -33.74660000     -68.20500000
H      -45.40200000     -34.61620000     -67.30780000
