40
Properties=species:S:1:pos:R:3 #=T CELL(abcABC):=T 1.889726e+02=T 90.00000=T Traj:=T positionsangstrom=T Step:=T 0=T Bead:=T pbc="F F F"
C      -42.85130000     -35.58280000     -68.90820000
C      -44.10430000     -35.00280000     -68.69080000
C      -44.28730000     -33.67450000     -68.33840000
C      -43.16140000     -32.78710000     -68.24990000
C      -41.89320000     -33.34270000     -68.59290000
C      -41.71350000     -34.72840000     -68.84120000
H      -42.68460000     -36.61910000     -68.96840000
H      -45.30540000     -33.33070000     -68.04010000
H      -40.97390000     -32.82680000     -68.58300000
H      -40.76180000     -35.16950000     -68.93420000
C      -43.43070000     -31.30790000     -68.00180000
H      -42.63580000     -30.70220000     -68.35700000
H      -43.41580000     -31.17630000     -66.89390000
C      -45.35860000     -35.78070000     -68.60960000
H      -45.39210000     -36.38870000     -67.66220000
H      -46.19860000     -35.06670000     -68.50540000
S      -45.11060000     -30.70510000     -68.56060000
S      -45.49940000     -36.94130000     -70.05710000
C      -45.06820000     -30.85860000     -70.35970000
H      -45.65110000     -29.96800000     -70.71900000
H      -43.99220000     -30.73620000     -70.83280000
C      -45.54270000     -35.61920000     -71.41520000
H      -44.92260000     -35.98460000     -72.22300000
H      -45.07260000     -34.72520000     -71.03340000
C      -46.92910000     -35.28630000     -71.93660000
H      -47.46000000     -36.20210000     -72.25540000
H      -47.48150000     -34.89940000     -71.06790000
C      -45.64250000     -32.07550000     -71.00850000
H      -46.53230000     -32.32250000     -70.56010000
H      -45.08710000     -32.91050000     -70.62510000
C      -45.90860000     -31.91720000     -72.48160000
C      -45.58340000     -30.82880000     -73.23110000
C      -46.58440000     -32.93560000     -73.30840000
H      -45.02150000     -29.92700000     -72.90170000
C      -46.88520000     -32.52640000     -74.58860000
C      -46.93560000     -34.33800000     -73.18430000
C      -47.26640000     -34.87770000     -74.39710000
S      -46.05150000     -30.98790000     -74.91970000
S      -47.25030000     -33.79430000     -75.76760000
H      -47.63460000     -35.85960000     -74.57260000
