40
Properties=species:S:1:pos:R:3 #=T CELL(abcABC):=T 1.889726e+02=T 90.00000=T Traj:=T positionsangstrom=T Step:=T 0=T Bead:=T pbc="F F F"
C      -46.10310000     -30.98320000     -70.81120000
C      -47.33800000     -31.44330000     -71.38660000
C      -47.34090000     -31.86560000     -72.67950000
C      -46.20450000     -31.70860000     -73.47000000
C      -45.09570000     -31.08150000     -72.93740000
C      -45.03140000     -30.68850000     -71.59960000
H      -46.05120000     -30.79400000     -69.73940000
H      -48.33090000     -32.22490000     -73.02040000
H      -44.29010000     -30.77380000     -73.60970000
H      -44.13440000     -30.16190000     -71.32300000
C      -46.11140000     -32.17430000     -74.87660000
H      -45.66980000     -31.33680000     -75.45120000
H      -47.11750000     -32.41900000     -75.28920000
C      -48.54710000     -31.67120000     -70.40990000
H      -48.72730000     -30.75240000     -69.86380000
H      -49.42170000     -31.94490000     -70.96430000
S      -44.98330000     -33.66780000     -74.89580000
S      -48.09620000     -33.01870000     -69.25920000
C      -45.91180000     -34.89440000     -73.85420000
H      -46.70670000     -34.37820000     -73.28480000
H      -46.39420000     -35.73320000     -74.48910000
C      -47.70130000     -34.45270000     -70.32030000
H      -47.33820000     -34.17990000     -71.29990000
H      -48.58720000     -34.94790000     -70.59600000
C      -46.74440000     -35.39870000     -69.77530000
H      -47.17970000     -35.73060000     -68.78060000
H      -46.62210000     -36.22350000     -70.44990000
C      -44.96370000     -35.67450000     -72.86850000
H      -44.36620000     -36.37070000     -73.44660000
H      -45.66300000     -36.32900000     -72.29080000
C      -44.05520000     -34.89890000     -71.85390000
C      -42.85910000     -34.49150000     -72.37370000
C      -44.25360000     -34.56340000     -70.45420000
H      -42.51700000     -34.49380000     -73.33620000
C      -43.19170000     -33.87600000     -69.85860000
C      -45.33270000     -34.79850000     -69.50380000
C      -44.97830000     -34.44470000     -68.26040000
S      -41.92310000     -33.62980000     -71.07780000
S      -43.28910000     -33.79350000     -68.14720000
H      -45.54560000     -34.50620000     -67.29580000
