40
Properties=species:S:1:pos:R:3 #=T CELL(abcABC):=T 1.889726e+02=T 90.00000=T Traj:=T positionsangstrom=T Step:=T 0=T Bead:=T pbc="F F F"
C      -45.95220000     -31.13850000     -70.17620000
C      -47.05480000     -31.68930000     -70.82550000
C      -46.97190000     -32.02920000     -72.19040000
C      -45.84030000     -31.80550000     -72.94680000
C      -44.69780000     -31.25690000     -72.25540000
C      -44.72890000     -30.92080000     -70.91950000
H      -46.12430000     -30.81200000     -69.18990000
H      -47.88920000     -32.26140000     -72.72980000
H      -43.72720000     -31.23710000     -72.87860000
H      -43.89300000     -30.49720000     -70.47780000
C      -45.73300000     -31.97660000     -74.41410000
H      -44.88830000     -31.31950000     -74.79130000
H      -46.69590000     -31.68320000     -74.88090000
C      -48.41020000     -31.85940000     -69.98310000
H      -48.30020000     -31.12000000     -69.19370000
H      -49.29070000     -31.75360000     -70.61510000
S      -45.11090000     -33.60310000     -75.04500000
S      -48.60160000     -33.51740000     -69.08840000
C      -45.98610000     -34.78650000     -73.85800000
H      -46.65690000     -34.26390000     -73.16990000
H      -46.70570000     -35.37480000     -74.46110000
C      -47.94580000     -34.66460000     -70.43790000
H      -47.95750000     -34.13870000     -71.40760000
H      -48.65660000     -35.47390000     -70.42690000
C      -46.72240000     -35.40110000     -70.03840000
H      -46.84890000     -35.75340000     -69.02790000
H      -46.54020000     -36.21660000     -70.73240000
C      -45.03580000     -35.57010000     -72.97920000
H      -44.44500000     -36.34920000     -73.59180000
H      -45.59250000     -36.11450000     -72.29670000
C      -44.05860000     -34.75640000     -72.19540000
C      -42.81250000     -34.39500000     -72.65470000
C      -44.23100000     -34.50810000     -70.80640000
H      -42.29850000     -34.46680000     -73.61400000
C      -43.22390000     -33.80880000     -70.27840000
C      -45.35500000     -34.66550000     -69.91340000
C      -45.04770000     -34.12610000     -68.65970000
S      -41.90540000     -33.53170000     -71.39500000
S      -43.48180000     -33.37650000     -68.61220000
H      -45.75800000     -34.07640000     -67.83440000
