40
Properties=species:S:1:pos:R:3 #=T CELL(abcABC):=T 1.889726e+02=T 90.00000=T Traj:=T positionsangstrom=T Step:=T 0=T Bead:=T pbc="F F F"
C      -45.91670000     -30.94910000     -70.36670000
C      -47.14310000     -31.31670000     -70.94780000
C      -47.23020000     -31.61730000     -72.27640000
C      -46.08400000     -31.57930000     -73.06560000
C      -44.87530000     -31.16920000     -72.55280000
C      -44.86690000     -30.80010000     -71.21330000
H      -45.74550000     -30.47950000     -69.42580000
H      -48.16500000     -31.79150000     -72.73940000
H      -43.86400000     -31.11570000     -73.04760000
H      -43.92360000     -30.57570000     -70.81840000
C      -46.15320000     -31.83050000     -74.60940000
H      -45.58350000     -31.10810000     -75.23400000
H      -47.16730000     -31.63450000     -75.01290000
C      -48.30290000     -31.50280000     -69.97510000
H      -48.15830000     -30.83120000     -69.14370000
H      -49.29780000     -31.24550000     -70.43760000
S      -45.58870000     -33.57220000     -75.03570000
S      -48.21150000     -33.15820000     -69.12900000
C      -46.39240000     -34.52650000     -73.68980000
H      -46.79210000     -33.76990000     -73.05610000
H      -47.11030000     -35.19150000     -74.09250000
C      -47.57010000     -34.34770000     -70.38960000
H      -47.01710000     -33.79620000     -71.13850000
H      -48.44340000     -34.81320000     -70.89740000
C      -46.61040000     -35.30600000     -69.74740000
H      -47.05190000     -35.78310000     -68.77480000
H      -46.52580000     -36.25030000     -70.34780000
C      -45.33590000     -35.44020000     -72.91020000
H      -44.79010000     -36.05360000     -73.66930000
H      -45.83220000     -36.19980000     -72.28740000
C      -44.26240000     -34.72120000     -72.09320000
C      -43.10650000     -34.33480000     -72.69060000
C      -44.18630000     -34.71700000     -70.64510000
H      -42.94990000     -34.25390000     -73.74520000
C      -42.92250000     -34.28510000     -70.17940000
C      -45.19930000     -34.87620000     -69.57360000
C      -44.66210000     -34.62270000     -68.36460000
S      -41.87480000     -33.91620000     -71.56470000
S      -43.00260000     -34.02200000     -68.50130000
H      -45.21590000     -34.53290000     -67.46810000
