40
Properties=species:S:1:pos:R:3 #=T CELL(abcABC):=T 1.889726e+02=T 90.00000=T Traj:=T positionsangstrom=T Step:=T 0=T Bead:=T pbc="F F F"
C      -46.14720000     -30.67150000     -70.33910000
C      -47.20020000     -31.42730000     -70.88020000
C      -47.16880000     -31.82790000     -72.27850000
C      -46.01470000     -31.54320000     -73.05040000
C      -44.92480000     -30.88180000     -72.40420000
C      -45.04780000     -30.44050000     -71.06510000
H      -46.33380000     -30.07840000     -69.44940000
H      -47.98740000     -32.24860000     -72.73140000
H      -44.00480000     -30.74150000     -72.96040000
H      -44.16470000     -30.04090000     -70.61350000
C      -46.05060000     -31.91460000     -74.49650000
H      -45.64830000     -31.20490000     -75.19380000
H      -47.07900000     -32.10140000     -74.78500000
C      -48.43130000     -31.87310000     -69.97420000
H      -48.80940000     -31.07940000     -69.33350000
H      -49.28870000     -32.14840000     -70.58110000
S      -45.04720000     -33.43070000     -74.81110000
S      -48.06580000     -33.37730000     -68.96270000
C      -46.09450000     -34.64100000     -73.89320000
H      -46.65320000     -34.07950000     -73.07970000
H      -46.72670000     -35.11720000     -74.70360000
C      -47.77810000     -34.56120000     -70.33720000
H      -47.49050000     -33.99620000     -71.22150000
H      -48.69290000     -35.12110000     -70.62320000
C      -46.61920000     -35.46200000     -69.87900000
H      -46.98820000     -35.95850000     -68.94480000
H      -46.61650000     -36.35360000     -70.48790000
C      -45.25230000     -35.68610000     -73.15460000
H      -44.71660000     -36.25290000     -73.96810000
H      -46.00010000     -36.41400000     -72.76270000
C      -44.22960000     -35.05820000     -72.19460000
C      -42.96020000     -34.74630000     -72.64480000
C      -44.32710000     -34.70790000     -70.79500000
H      -42.66020000     -34.82180000     -73.73230000
C      -43.13470000     -34.12730000     -70.30990000
C      -45.29150000     -34.83650000     -69.74440000
C      -44.93510000     -34.19930000     -68.57920000
S      -41.91010000     -33.98700000     -71.50560000
S      -43.30610000     -33.54830000     -68.63100000
H      -45.47390000     -34.11210000     -67.65910000
