40
Properties=species:S:1:pos:R:3 #=T CELL(abcABC):=T 1.889726e+02=T 90.00000=T Traj:=T positionsangstrom=T Step:=T 0=T Bead:=T pbc="F F F"
C      -45.88090000     -31.22460000     -70.12090000
C      -47.02930000     -31.59880000     -70.71990000
C      -47.04480000     -31.85520000     -72.10190000
C      -45.87810000     -31.68370000     -72.86700000
C      -44.69280000     -31.32970000     -72.27960000
C      -44.67320000     -31.08020000     -70.88560000
H      -45.79940000     -31.16330000     -69.03610000
H      -47.95280000     -32.14360000     -72.57490000
H      -43.81930000     -31.10550000     -72.93250000
H      -43.75570000     -30.73250000     -70.48460000
C      -46.04120000     -31.87910000     -74.34710000
H      -45.72160000     -31.04410000     -74.92850000
H      -47.10500000     -32.02320000     -74.57820000
C      -48.30230000     -31.83950000     -69.90700000
H      -48.46680000     -31.13460000     -69.10320000
H      -49.14710000     -31.75280000     -70.65190000
S      -45.15260000     -33.37630000     -74.88520000
S      -48.37440000     -33.51360000     -69.12460000
C      -45.89540000     -34.79380000     -73.98780000
H      -46.59720000     -34.50580000     -73.17260000
H      -46.57990000     -35.41090000     -74.67080000
C      -47.86370000     -34.76760000     -70.42730000
H      -47.67360000     -34.31740000     -71.43330000
H      -48.75070000     -35.46900000     -70.52570000
C      -46.55390000     -35.53720000     -69.96940000
H      -46.85500000     -36.05300000     -69.02730000
H      -46.46870000     -36.31050000     -70.72890000
C      -44.90330000     -35.71690000     -73.33150000
H      -44.08220000     -36.00340000     -73.98480000
H      -45.45990000     -36.64610000     -73.02860000
C      -44.12310000     -35.00230000     -72.25870000
C      -42.85150000     -34.65860000     -72.61090000
C      -44.32440000     -34.53590000     -70.83890000
H      -42.42380000     -34.69290000     -73.58760000
C      -43.32780000     -33.72800000     -70.31290000
C      -45.38420000     -34.63850000     -69.85820000
C      -45.11120000     -34.04880000     -68.63720000
S      -41.97730000     -33.69410000     -71.43600000
S      -43.56840000     -33.17650000     -68.69620000
H      -45.59420000     -34.26830000     -67.66740000
