40
Properties=species:S:1:pos:R:3 #=T CELL(abcABC):=T 1.889726e+02=T 90.00000=T Traj:=T positionsangstrom=T Step:=T 0=T Bead:=T pbc="F F F"
C      -45.70530000     -31.11670000     -70.37410000
C      -46.93090000     -31.40680000     -70.93170000
C      -47.12220000     -31.64900000     -72.30340000
C      -45.98110000     -31.43960000     -73.16620000
C      -44.80190000     -31.02430000     -72.58490000
C      -44.64410000     -30.93450000     -71.21080000
H      -45.61100000     -31.20790000     -69.29410000
H      -48.13060000     -31.92060000     -72.67980000
H      -43.96880000     -30.90220000     -73.18920000
H      -43.65280000     -30.46020000     -70.92570000
C      -46.05910000     -31.73290000     -74.62490000
H      -45.31730000     -31.15910000     -75.15580000
H      -47.03150000     -31.46320000     -75.06550000
C      -48.10940000     -31.60580000     -70.00590000
H      -48.12960000     -30.81610000     -69.24270000
H      -49.07070000     -31.45230000     -70.40490000
S      -45.52660000     -33.52250000     -74.95370000
S      -47.99430000     -33.12060000     -68.93500000
C      -46.35270000     -34.46730000     -73.62820000
H      -46.52450000     -33.71750000     -72.85320000
H      -47.29070000     -34.93270000     -73.93990000
C      -47.71830000     -34.41170000     -70.20790000
H      -47.38640000     -33.94510000     -71.12540000
H      -48.64130000     -34.90050000     -70.48200000
C      -46.67900000     -35.55860000     -69.76720000
H      -47.00130000     -35.82420000     -68.77660000
H      -46.86150000     -36.34310000     -70.49490000
C      -45.39270000     -35.50990000     -73.03660000
H      -44.92370000     -36.17080000     -73.86540000
H      -46.05000000     -36.12830000     -72.31960000
C      -44.28630000     -34.85070000     -72.21890000
C      -43.17480000     -34.24840000     -72.75420000
C      -44.30460000     -34.80120000     -70.75280000
H      -42.80150000     -34.32310000     -73.79400000
C      -43.22100000     -34.12080000     -70.25340000
C      -45.26050000     -35.07770000     -69.67430000
C      -44.79330000     -34.68510000     -68.46340000
S      -42.09200000     -33.66820000     -71.53170000
S      -43.17040000     -34.06130000     -68.56710000
H      -45.25130000     -34.85560000     -67.50240000
