40
Properties=species:S:1:pos:R:3 #=T CELL(abcABC):=T 1.889726e+02=T 90.00000=T Traj:=T positionsangstrom=T Step:=T 0=T Bead:=T pbc="F F F"
C      -46.04240000     -30.63190000     -70.15380000
C      -47.07900000     -31.41360000     -70.69510000
C      -47.03300000     -31.81800000     -72.02670000
C      -45.90640000     -31.49240000     -72.89600000
C      -44.95190000     -30.56410000     -72.35130000
C      -45.02010000     -30.22340000     -70.99730000
H      -45.89250000     -30.48490000     -69.07340000
H      -47.85330000     -32.43810000     -72.41620000
H      -44.22090000     -30.13150000     -73.10970000
H      -44.24520000     -29.58290000     -70.59550000
C      -45.93840000     -31.85640000     -74.29290000
H      -45.40610000     -31.10890000     -74.93500000
H      -47.01790000     -31.95970000     -74.52000000
C      -48.27710000     -31.70150000     -69.86590000
H      -48.24250000     -31.06720000     -68.98950000
H      -49.23690000     -31.60190000     -70.41490000
S      -45.15980000     -33.52340000     -74.88100000
S      -48.22800000     -33.38730000     -69.10390000
C      -46.07340000     -34.94050000     -73.98410000
H      -46.89470000     -34.51270000     -73.45580000
H      -46.52970000     -35.54960000     -74.72950000
C      -47.81470000     -34.68230000     -70.41540000
H      -47.71290000     -34.18590000     -71.36160000
H      -48.67310000     -35.35640000     -70.57050000
C      -46.66990000     -35.58500000     -69.99980000
H      -46.77560000     -35.96590000     -68.91310000
H      -46.53960000     -36.46480000     -70.60660000
C      -45.15730000     -35.81830000     -73.14520000
H      -44.61200000     -36.57000000     -73.81860000
H      -45.72510000     -36.44610000     -72.47880000
C      -44.08330000     -35.07400000     -72.26840000
C      -42.83340000     -34.75270000     -72.71270000
C      -44.28220000     -34.69270000     -70.86900000
H      -42.47870000     -34.87140000     -73.74120000
C      -43.21200000     -33.96130000     -70.36600000
C      -45.35240000     -34.84400000     -69.91980000
C      -45.04230000     -34.34640000     -68.66680000
S      -41.84900000     -33.94140000     -71.48550000
S      -43.45770000     -33.54320000     -68.62980000
H      -45.64190000     -34.39220000     -67.76250000
