40
Properties=species:S:1:pos:R:3 #=T CELL(abcABC):=T 1.889726e+02=T 90.00000=T Traj:=T positionsangstrom=T Step:=T 0=T Bead:=T pbc="F F F"
C      -45.75620000     -30.89940000     -70.38680000
C      -46.98920000     -31.30820000     -70.83630000
C      -47.15580000     -31.51660000     -72.23580000
C      -46.03210000     -31.52210000     -73.14510000
C      -44.74850000     -31.19490000     -72.57510000
C      -44.66010000     -30.74240000     -71.25430000
H      -45.50660000     -30.74010000     -69.34170000
H      -48.17070000     -31.87850000     -72.54560000
H      -43.78780000     -31.12640000     -73.15750000
H      -43.69000000     -30.45850000     -70.83570000
C      -46.22020000     -31.88290000     -74.57660000
H      -45.63260000     -31.25070000     -75.29640000
H      -47.28760000     -31.77400000     -74.74930000
C      -48.21510000     -31.53200000     -69.99840000
H      -48.38940000     -30.73520000     -69.27120000
H      -49.01520000     -31.64980000     -70.71940000
S      -45.67800000     -33.53330000     -75.04610000
S      -48.18700000     -33.17850000     -69.09510000
C      -46.36240000     -34.65230000     -73.78990000
H      -47.16120000     -34.14110000     -73.24570000
H      -47.01440000     -35.38260000     -74.40550000
C      -47.59050000     -34.36330000     -70.37020000
H      -47.09470000     -33.79690000     -71.15760000
H      -48.46010000     -34.91850000     -70.76770000
C      -46.63380000     -35.37080000     -69.74300000
H      -47.01490000     -35.86160000     -68.81940000
H      -46.52890000     -36.16520000     -70.38960000
C      -45.34720000     -35.48710000     -72.99480000
H      -44.86590000     -35.98780000     -73.82480000
H      -45.81560000     -36.23670000     -72.46020000
C      -44.32970000     -34.79510000     -72.12420000
C      -43.12660000     -34.53490000     -72.66640000
C      -44.36910000     -34.57900000     -70.66860000
H      -42.89660000     -34.60330000     -73.72610000
C      -43.14380000     -34.04890000     -70.20860000
C      -45.23630000     -34.88070000     -69.53930000
C      -44.61170000     -34.70530000     -68.34770000
S      -41.95990000     -33.76760000     -71.50650000
S      -42.97120000     -34.09260000     -68.49460000
H      -45.01230000     -34.91360000     -67.40490000
