40
Properties=species:S:1:pos:R:3 #=T CELL(abcABC):=T 1.889726e+02=T 90.00000=T Traj:=T positionsangstrom=T Step:=T 0=T Bead:=T pbc="F F F"
C      -45.80440000     -31.09950000     -70.17720000
C      -47.06400000     -31.47830000     -70.68810000
C      -47.14770000     -31.66230000     -72.08820000
C      -46.02710000     -31.50480000     -72.92360000
C      -44.82390000     -31.02940000     -72.43880000
C      -44.70740000     -30.84960000     -70.99110000
H      -45.75410000     -30.90810000     -69.10010000
H      -48.05360000     -31.93110000     -72.62470000
H      -43.95390000     -30.87470000     -73.00320000
H      -43.68690000     -30.55550000     -70.64310000
C      -46.09510000     -31.93050000     -74.40070000
H      -45.73620000     -31.08800000     -75.02330000
H      -47.06850000     -32.27230000     -74.81490000
C      -48.22120000     -31.74790000     -69.83130000
H      -48.35820000     -31.08340000     -68.98060000
H      -49.16820000     -31.62250000     -70.34710000
S      -44.99290000     -33.41570000     -74.65070000
S      -48.23450000     -33.49590000     -69.04350000
C      -45.92450000     -34.72010000     -73.85140000
H      -46.51160000     -34.18160000     -73.11890000
H      -46.52400000     -35.27760000     -74.52930000
C      -47.90950000     -34.66640000     -70.40080000
H      -47.72110000     -34.04530000     -71.25430000
H      -48.76730000     -35.28010000     -70.70690000
C      -46.70480000     -35.59240000     -70.16020000
H      -46.74070000     -36.22160000     -69.31770000
H      -46.56590000     -36.37930000     -70.94150000
C      -44.98820000     -35.76770000     -73.11360000
H      -44.56740000     -36.44430000     -73.81880000
H      -45.62080000     -36.49620000     -72.46590000
C      -43.92190000     -35.19580000     -72.25400000
C      -42.72110000     -34.66900000     -72.67120000
C      -44.29570000     -34.71000000     -70.93710000
H      -42.18940000     -34.70380000     -73.59840000
C      -43.30000000     -33.93420000     -70.32320000
C      -45.40910000     -34.83740000     -70.06030000
C      -45.21980000     -34.21010000     -68.84620000
S      -41.92880000     -33.71610000     -71.41550000
S      -43.74300000     -33.28840000     -68.76520000
H      -45.96580000     -34.18920000     -68.04730000
