40
Properties=species:S:1:pos:R:3 #=T CELL(abcABC):=T 1.889726e+02=T 90.00000=T Traj:=T positionsangstrom=T Step:=T 0=T Bead:=T pbc="F F F"
C      -45.34040000     -31.05320000     -70.21020000
C      -46.56850000     -31.51730000     -70.65430000
C      -46.78290000     -31.84680000     -71.93770000
C      -45.86940000     -31.42680000     -72.89330000
C      -44.61460000     -30.92450000     -72.51890000
C      -44.29160000     -30.83900000     -71.12190000
H      -45.10500000     -31.01100000     -69.13380000
H      -47.80040000     -32.06600000     -72.29580000
H      -43.83590000     -30.80010000     -73.32930000
H      -43.40510000     -30.33520000     -70.78220000
C      -46.12630000     -31.57680000     -74.34560000
H      -45.55190000     -30.86680000     -74.89120000
H      -47.17020000     -31.49700000     -74.52030000
C      -47.71590000     -31.74210000     -69.72380000
H      -47.64150000     -31.02130000     -68.87450000
H      -48.71580000     -31.51630000     -70.11150000
S      -45.54130000     -33.26090000     -75.04930000
S      -47.87260000     -33.38500000     -68.82860000
C      -46.42900000     -34.44290000     -74.00100000
H      -47.04660000     -33.90440000     -73.38070000
H      -47.00160000     -35.02470000     -74.73340000
C      -47.76090000     -34.51060000     -70.23370000
H      -47.54120000     -33.91790000     -71.12730000
H      -48.74350000     -34.91160000     -70.40940000
C      -46.80900000     -35.61720000     -70.12500000
H      -46.98390000     -36.31950000     -69.20200000
H      -46.77390000     -36.31910000     -70.96080000
C      -45.56840000     -35.40770000     -73.16610000
H      -45.17710000     -36.19500000     -73.92340000
H      -46.24860000     -36.04600000     -72.57700000
C      -44.44630000     -34.83950000     -72.28720000
C      -43.36870000     -34.22910000     -72.86640000
C      -44.44170000     -34.80020000     -70.85780000
H      -43.20100000     -34.20540000     -73.96840000
C      -43.28320000     -34.19190000     -70.31830000
C      -45.45330000     -35.05570000     -69.86210000
C      -44.99670000     -34.74760000     -68.60790000
S      -42.23560000     -33.53920000     -71.65070000
S      -43.39140000     -34.12620000     -68.51930000
H      -45.49010000     -34.98830000     -67.68200000
