40
Properties=species:S:1:pos:R:3 #=T CELL(abcABC):=T 1.889726e+02=T 90.00000=T Traj:=T positionsangstrom=T Step:=T 0=T Bead:=T pbc="F F F"
C      -45.37980000     -31.20210000     -70.06670000
C      -46.62780000     -31.51100000     -70.46120000
C      -46.90540000     -31.58420000     -71.83710000
C      -45.91150000     -31.63040000     -72.78500000
C      -44.57800000     -31.40830000     -72.35170000
C      -44.35700000     -31.11460000     -71.02010000
H      -45.19000000     -31.06370000     -68.99170000
H      -47.92290000     -31.76590000     -72.15310000
H      -43.84210000     -31.36890000     -73.12610000
H      -43.28890000     -31.03370000     -70.60600000
C      -46.21730000     -31.65210000     -74.25510000
H      -45.71330000     -30.79840000     -74.74410000
H      -47.27600000     -31.49490000     -74.32760000
C      -47.72300000     -31.58070000     -69.40900000
H      -47.53580000     -30.89280000     -68.63350000
H      -48.66690000     -31.22930000     -69.90850000
S      -45.82560000     -33.23620000     -75.10700000
S      -48.11260000     -33.26320000     -68.82480000
C      -46.46390000     -34.43040000     -73.83020000
H      -46.93440000     -33.85710000     -73.00660000
H      -47.24300000     -35.07640000     -74.20500000
C      -47.90010000     -34.32260000     -70.45020000
H      -47.80380000     -33.60580000     -71.23820000
H      -48.86750000     -34.77600000     -70.70530000
C      -46.79410000     -35.39580000     -70.27450000
H      -47.04390000     -36.05010000     -69.48770000
H      -46.81880000     -36.05280000     -71.14030000
C      -45.37200000     -35.43780000     -73.24870000
H      -44.95640000     -36.00890000     -74.08790000
H      -45.98200000     -36.14410000     -72.61930000
C      -44.28160000     -34.84800000     -72.42730000
C      -43.03330000     -34.39150000     -72.81460000
C      -44.38600000     -34.66330000     -70.99800000
H      -42.69960000     -34.24980000     -73.82030000
C      -43.21710000     -34.15830000     -70.46780000
C      -45.38550000     -34.94220000     -69.97680000
C      -44.90750000     -34.81050000     -68.66980000
S      -42.01340000     -33.60310000     -71.57550000
S      -43.25500000     -34.10710000     -68.72770000
H      -45.45850000     -34.95530000     -67.76510000
