40
Properties=species:S:1:pos:R:3 #=T CELL(abcABC):=T 1.889726e+02=T 90.00000=T Traj:=T positionsangstrom=T Step:=T 0=T Bead:=T pbc="F F F"
C      -45.33010000     -31.10640000     -70.09920000
C      -46.61420000     -31.47570000     -70.54410000
C      -46.87740000     -31.58030000     -71.87870000
C      -45.85280000     -31.41130000     -72.84150000
C      -44.57590000     -31.02440000     -72.37520000
C      -44.23250000     -30.93630000     -70.96680000
H      -45.10670000     -30.91680000     -69.03440000
H      -47.87120000     -31.91550000     -72.21270000
H      -43.78520000     -30.96930000     -73.12770000
H      -43.21600000     -30.64720000     -70.56410000
C      -46.14790000     -31.69100000     -74.29100000
H      -45.60650000     -31.00770000     -74.96770000
H      -47.20930000     -31.39930000     -74.56410000
C      -47.73710000     -31.57940000     -69.51790000
H      -47.42150000     -31.06790000     -68.58400000
H      -48.62050000     -31.18100000     -70.03770000
S      -45.69520000     -33.31290000     -75.03740000
S      -48.08540000     -33.30040000     -68.84820000
C      -46.44750000     -34.60400000     -73.87690000
H      -46.94780000     -33.98720000     -73.10650000
H      -47.24990000     -35.25770000     -74.28750000
C      -47.89710000     -34.55560000     -70.29840000
H      -47.51610000     -34.03080000     -71.15990000
H      -48.88390000     -35.02400000     -70.48060000
C      -46.81170000     -35.62800000     -70.05890000
H      -47.13560000     -36.10490000     -69.11130000
H      -46.94430000     -36.32050000     -70.87990000
C      -45.24250000     -35.51150000     -73.44530000
H      -44.64210000     -35.77480000     -74.32790000
H      -45.59700000     -36.39220000     -72.98160000
C      -44.35580000     -34.73380000     -72.42640000
C      -43.24500000     -34.06220000     -72.88840000
C      -44.51070000     -34.63840000     -70.98740000
H      -42.89740000     -33.95800000     -73.92970000
C      -43.33450000     -34.12690000     -70.42030000
C      -45.44490000     -35.02420000     -69.88210000
C      -44.90450000     -34.83560000     -68.63360000
S      -42.12080000     -33.63900000     -71.56110000
S      -43.29800000     -34.15090000     -68.74100000
H      -45.37270000     -34.96910000     -67.65830000
