40
Properties=species:S:1:pos:R:3 #=T CELL(abcABC):=T 1.889726e+02=T 90.00000=T Traj:=T positionsangstrom=T Step:=T 0=T Bead:=T pbc="F F F"
C      -45.44590000     -31.10230000     -70.29180000
C      -46.72100000     -31.45420000     -70.71700000
C      -46.99760000     -31.50410000     -72.11900000
C      -45.93760000     -31.31610000     -72.99780000
C      -44.60420000     -31.03910000     -72.52080000
C      -44.36900000     -30.89920000     -71.15050000
H      -45.24250000     -31.09370000     -69.20290000
H      -47.89310000     -32.05600000     -72.44710000
H      -43.89640000     -30.78430000     -73.32360000
H      -43.34470000     -30.87590000     -70.83590000
C      -46.07250000     -31.64630000     -74.47890000
H      -45.64090000     -30.81530000     -75.11750000
H      -47.12270000     -31.75310000     -74.77430000
C      -47.76910000     -31.70910000     -69.68810000
H      -47.71060000     -30.91200000     -68.98380000
H      -48.74710000     -31.72580000     -70.17550000
S      -45.39020000     -33.26500000     -75.06920000
S      -47.69410000     -33.36880000     -68.85680000
C      -46.36670000     -34.40130000     -73.99800000
H      -46.85620000     -33.88420000     -73.16560000
H      -47.23710000     -34.71710000     -74.61760000
C      -47.79330000     -34.66660000     -70.09480000
H      -47.48410000     -34.20270000     -71.03990000
H      -48.86200000     -34.90520000     -70.22160000
C      -46.79030000     -35.77780000     -69.81530000
H      -47.06510000     -36.20280000     -68.88740000
H      -46.92480000     -36.48080000     -70.55480000
C      -45.49890000     -35.45100000     -73.33190000
H      -44.96840000     -36.07880000     -74.06870000
H      -46.14900000     -36.15700000     -72.81440000
C      -44.48330000     -34.85490000     -72.33240000
C      -43.24290000     -34.33850000     -72.75130000
C      -44.62760000     -34.65500000     -70.84280000
H      -42.91620000     -34.36890000     -73.76440000
C      -43.52380000     -33.97680000     -70.31920000
C      -45.42140000     -35.19390000     -69.73800000
C      -44.78180000     -35.01930000     -68.52950000
S      -42.30570000     -33.68140000     -71.49050000
S      -43.43750000     -33.86680000     -68.64790000
H      -45.25370000     -35.22140000     -67.54800000
