40
Properties=species:S:1:pos:R:3 #=T CELL(abcABC):=T 1.889726e+02=T 90.00000=T Traj:=T positionsangstrom=T Step:=T 0=T Bead:=T pbc="F F F"
C      -45.55200000     -31.06990000     -70.32360000
C      -46.82200000     -31.41180000     -70.86910000
C      -46.99680000     -31.48940000     -72.25060000
C      -45.92050000     -31.28630000     -73.12930000
C      -44.65830000     -31.04180000     -72.54490000
C      -44.46450000     -31.01410000     -71.15170000
H      -45.61670000     -30.89050000     -69.26770000
H      -47.97810000     -31.55810000     -72.71010000
H      -43.81350000     -30.97610000     -73.17090000
H      -43.42100000     -31.02200000     -70.79230000
C      -46.17970000     -31.62190000     -74.52670000
H      -45.74590000     -30.93900000     -75.22470000
H      -47.25420000     -31.71650000     -74.84830000
C      -47.98130000     -31.76780000     -70.00480000
H      -48.16850000     -30.91280000     -69.34080000
H      -48.95430000     -32.03560000     -70.55350000
S      -45.41500000     -33.31870000     -74.90740000
S      -47.63040000     -33.22790000     -68.91450000
C      -46.37600000     -34.49980000     -73.76620000
H      -47.05800000     -33.99730000     -73.01470000
H      -47.00160000     -35.07400000     -74.43840000
C      -47.87300000     -34.60720000     -70.13800000
H      -47.90440000     -34.14950000     -71.13970000
H      -48.78570000     -35.22210000     -69.99500000
C      -46.76700000     -35.64240000     -69.94220000
H      -46.89320000     -36.26510000     -69.02670000
H      -46.79420000     -36.40430000     -70.85760000
C      -45.49920000     -35.54240000     -73.08180000
H      -45.04770000     -36.13790000     -73.82090000
H      -46.19470000     -36.14660000     -72.50720000
C      -44.37990000     -34.95310000     -72.24300000
C      -43.25780000     -34.35950000     -72.82860000
C      -44.44790000     -34.85490000     -70.79490000
H      -43.06850000     -34.33250000     -73.87320000
C      -43.33720000     -34.25030000     -70.26930000
C      -45.35780000     -35.09330000     -69.74410000
C      -44.95960000     -34.66060000     -68.50040000
S      -42.20970000     -33.63290000     -71.53340000
S      -43.36600000     -33.93470000     -68.54230000
H      -45.60390000     -34.69840000     -67.59510000
