40
Properties=species:S:1:pos:R:3 #=T CELL(abcABC):=T 1.889726e+02=T 90.00000=T Traj:=T positionsangstrom=T Step:=T 0=T Bead:=T pbc="F F F"
C      -46.09030000     -30.49680000     -69.90160000
C      -47.17310000     -31.27380000     -70.34980000
C      -47.21270000     -31.60680000     -71.70990000
C      -46.12770000     -31.36910000     -72.56520000
C      -45.00710000     -30.76980000     -72.04260000
C      -44.98810000     -30.28980000     -70.74730000
H      -46.04650000     -30.19450000     -68.91070000
H      -48.19370000     -31.86450000     -72.19240000
H      -44.20570000     -30.54110000     -72.72520000
H      -44.16960000     -29.66470000     -70.29720000
C      -46.18290000     -31.60000000     -74.10050000
H      -45.59060000     -30.84070000     -74.65520000
H      -47.15230000     -31.35600000     -74.61330000
C      -48.32800000     -31.68950000     -69.44410000
H      -48.30180000     -31.06130000     -68.55710000
H      -49.21330000     -31.51980000     -70.00420000
S      -45.39370000     -33.16330000     -74.64920000
S      -47.94310000     -33.33920000     -68.79220000
C      -46.40420000     -34.50280000     -73.84010000
H      -46.86390000     -33.94480000     -73.06090000
H      -47.20040000     -34.81560000     -74.53750000
C      -47.67170000     -34.44510000     -70.23540000
H      -47.52930000     -33.83790000     -71.13770000
H      -48.59420000     -34.93350000     -70.43600000
C      -46.56130000     -35.46170000     -70.00180000
H      -46.71550000     -35.96060000     -69.03840000
H      -46.49190000     -36.22240000     -70.80090000
C      -45.55280000     -35.66460000     -73.32240000
H      -45.16410000     -36.31720000     -74.11100000
H      -46.21390000     -36.31540000     -72.70560000
C      -44.31320000     -35.25980000     -72.50620000
C      -43.07180000     -35.16130000     -73.09550000
C      -44.27380000     -34.80690000     -71.13090000
H      -42.83600000     -35.39130000     -74.12390000
C      -43.06930000     -34.22170000     -70.81490000
C      -45.19900000     -34.83590000     -69.99920000
C      -44.64570000     -34.38350000     -68.82940000
S      -41.83120000     -34.40200000     -72.01000000
S      -43.05180000     -33.81660000     -69.07160000
H      -45.17170000     -34.20990000     -67.92180000
