40
Properties=species:S:1:pos:R:3 #=T CELL(abcABC):=T 1.889726e+02=T 90.00000=T Traj:=T positionsangstrom=T Step:=T 0=T Bead:=T pbc="F F F"
C      -45.80220000     -31.01900000     -69.91030000
C      -47.05620000     -31.29350000     -70.39730000
C      -47.20670000     -31.27890000     -71.78030000
C      -46.13740000     -31.12890000     -72.72150000
C      -44.95750000     -30.70650000     -72.18860000
C      -44.76040000     -30.67610000     -70.80430000
H      -45.57200000     -30.86860000     -68.82820000
H      -48.16640000     -31.64800000     -72.15890000
H      -44.10760000     -30.41060000     -72.83150000
H      -43.86460000     -30.31190000     -70.29880000
C      -46.35660000     -31.55550000     -74.17520000
H      -45.87560000     -30.91730000     -74.85070000
H      -47.42110000     -31.64930000     -74.38150000
C      -48.26480000     -31.62500000     -69.59700000
H      -48.45450000     -31.02600000     -68.70090000
H      -49.25850000     -31.57740000     -70.17380000
S      -45.47560000     -33.14320000     -74.59510000
S      -48.03370000     -33.29330000     -68.73000000
C      -46.31590000     -34.48970000     -73.76780000
H      -46.58350000     -34.13260000     -72.71920000
H      -47.20960000     -34.87220000     -74.20510000
C      -47.82360000     -34.48560000     -70.21640000
H      -47.69570000     -33.92520000     -71.16680000
H      -48.79710000     -35.00680000     -70.23010000
C      -46.60930000     -35.39030000     -70.02640000
H      -46.77220000     -35.88520000     -69.08710000
H      -46.67000000     -36.18240000     -70.76030000
C      -45.36180000     -35.70000000     -73.43950000
H      -45.02140000     -36.09030000     -74.39060000
H      -46.03340000     -36.42730000     -73.00720000
C      -44.25160000     -35.28280000     -72.50910000
C      -42.98800000     -35.07260000     -73.01850000
C      -44.24500000     -34.95640000     -71.10850000
H      -42.77800000     -35.22830000     -74.09090000
C      -43.03820000     -34.40390000     -70.69720000
C      -45.27030000     -34.74090000     -70.02990000
C      -44.79960000     -34.23060000     -68.82950000
S      -41.83980000     -34.40710000     -71.95800000
S      -43.10770000     -33.76340000     -69.02360000
H      -45.31170000     -34.10540000     -67.91350000
