40
Properties=species:S:1:pos:R:3 #=T CELL(abcABC):=T 1.889726e+02=T 90.00000=T Traj:=T positionsangstrom=T Step:=T 0=T Bead:=T pbc="F F F"
C      -45.51370000     -31.29670000     -70.05120000
C      -46.89050000     -31.32340000     -70.45230000
C      -47.09750000     -31.43440000     -71.83840000
C      -46.13870000     -31.26930000     -72.83550000
C      -44.80220000     -31.18920000     -72.36260000
C      -44.51440000     -31.18270000     -70.99620000
H      -45.38420000     -31.37230000     -68.96300000
H      -48.14780000     -31.58280000     -72.19880000
H      -43.98690000     -30.90060000     -73.08890000
H      -43.50280000     -30.96090000     -70.78830000
C      -46.46410000     -31.53460000     -74.27830000
H      -46.08290000     -30.71600000     -74.84540000
H      -47.44830000     -31.48400000     -74.61940000
C      -48.02380000     -31.60650000     -69.42160000
H      -47.79140000     -30.87160000     -68.57590000
H      -48.98450000     -31.43530000     -69.86590000
S      -45.65150000     -33.08750000     -75.00240000
S      -47.95990000     -33.31360000     -68.69810000
C      -46.34960000     -34.44120000     -73.85580000
H      -46.74720000     -33.97600000     -72.99790000
H      -47.21420000     -34.89960000     -74.37550000
C      -47.72710000     -34.31900000     -70.15040000
H      -47.69740000     -33.73050000     -71.05000000
H      -48.72230000     -34.80620000     -70.26110000
C      -46.73810000     -35.41130000     -70.09210000
H      -46.98660000     -36.00250000     -69.23060000
H      -46.87580000     -35.87160000     -71.02730000
C      -45.34460000     -35.51000000     -73.32800000
H      -44.91500000     -35.98460000     -74.22070000
H      -45.94820000     -36.29850000     -72.90050000
C      -44.25770000     -35.09390000     -72.42650000
C      -43.01110000     -34.82810000     -72.89160000
C      -44.36000000     -34.66790000     -71.00940000
H      -42.66570000     -35.08100000     -73.89690000
C      -43.13580000     -34.17390000     -70.54960000
C      -45.33310000     -34.84630000     -69.97160000
C      -44.86450000     -34.43420000     -68.75190000
S      -41.88550000     -34.11550000     -71.73460000
S      -43.24590000     -33.88920000     -68.82400000
H      -45.48280000     -34.42370000     -67.85580000
