40
Properties=species:S:1:pos:R:3 #=T CELL(abcABC):=T 1.889726e+02=T 90.00000=T Traj:=T positionsangstrom=T Step:=T 0=T Bead:=T pbc="F F F"
C      -48.18150000     -30.19590000     -69.20450000
C      -46.95280000     -30.18170000     -69.88760000
C      -45.86440000     -30.73970000     -69.15670000
C      -45.92820000     -31.39510000     -67.90350000
C      -47.22750000     -31.45690000     -67.36870000
C      -48.26890000     -30.75790000     -67.93240000
H      -49.09120000     -29.70060000     -69.54400000
H      -44.88630000     -30.75970000     -69.63430000
H      -47.36010000     -31.68520000     -66.28030000
H      -49.22320000     -30.74230000     -67.49380000
C      -44.71390000     -32.11280000     -67.30150000
H      -44.95910000     -32.03080000     -66.22380000
H      -43.72540000     -31.67990000     -67.42400000
C      -46.91520000     -29.61240000     -71.25280000
H      -47.67500000     -28.81190000     -71.38670000
H      -45.92070000     -29.15110000     -71.45010000
S      -44.69130000     -33.92110000     -67.89270000
S      -47.42240000     -31.01820000     -72.47490000
C      -44.39110000     -33.75730000     -69.72050000
H      -45.07530000     -33.14690000     -70.25920000
H      -43.39820000     -33.36370000     -69.90460000
C      -45.92570000     -32.00510000     -72.67720000
H      -45.16460000     -31.82470000     -71.89350000
H      -45.50210000     -31.87870000     -73.67100000
C      -46.41110000     -33.51960000     -72.70800000
H      -46.46810000     -33.76200000     -71.64190000
H      -47.40030000     -33.57070000     -73.12740000
C      -44.62200000     -35.22040000     -70.24800000
H      -45.67450000     -35.38460000     -70.23530000
H      -44.26430000     -35.96070000     -69.56490000
C      -44.04480000     -35.58410000     -71.63610000
C      -42.89310000     -36.34880000     -71.65120000
C      -44.48160000     -35.24860000     -73.00890000
H      -42.37200000     -36.52360000     -70.71030000
C      -43.75240000     -35.92840000     -73.99900000
C      -45.47020000     -34.34400000     -73.52820000
C      -45.51790000     -34.28990000     -74.86020000
S      -42.35310000     -36.85190000     -73.28520000
S      -44.22360000     -35.33820000     -75.59120000
H      -46.22170000     -33.64680000     -75.40630000
