40
Properties=species:S:1:pos:R:3 #=T CELL(abcABC):=T 1.889726e+02=T 90.00000=T Traj:=T positionsangstrom=T Step:=T 0=T Bead:=T pbc="F F F"
C      -45.42660000     -31.45150000     -70.02190000
C      -46.75060000     -31.58020000     -70.48460000
C      -47.11030000     -31.48520000     -71.82010000
C      -46.04230000     -31.53880000     -72.76610000
C      -44.69980000     -31.47610000     -72.32500000
C      -44.35490000     -31.32150000     -70.93670000
H      -45.28270000     -31.50900000     -68.96570000
H      -48.11280000     -31.44750000     -72.19590000
H      -43.97450000     -31.17400000     -73.04720000
H      -43.32590000     -31.31040000     -70.51430000
C      -46.37730000     -31.65440000     -74.25200000
H      -45.82690000     -30.89520000     -74.84740000
H      -47.42560000     -31.42090000     -74.33870000
C      -47.84920000     -31.65020000     -69.40550000
H      -47.58860000     -31.06430000     -68.50220000
H      -48.87590000     -31.55230000     -69.64680000
S      -45.85260000     -33.22610000     -75.02460000
S      -47.78530000     -33.37570000     -68.64370000
C      -46.54120000     -34.44940000     -73.80430000
H      -46.81930000     -33.87850000     -72.96620000
H      -47.47320000     -34.82090000     -74.25900000
C      -47.67170000     -34.56530000     -70.07120000
H      -47.56840000     -33.96670000     -70.96740000
H      -48.67090000     -35.01190000     -70.05900000
C      -46.55090000     -35.58740000     -69.93520000
H      -46.79860000     -36.19570000     -69.06990000
H      -46.58860000     -36.22250000     -70.91430000
C      -45.49220000     -35.47290000     -73.32060000
H      -45.13600000     -35.92390000     -74.25090000
H      -46.14340000     -36.20910000     -72.73840000
C      -44.46360000     -34.89740000     -72.43350000
C      -43.39160000     -34.21960000     -73.04250000
C      -44.35850000     -34.73870000     -70.96570000
H      -43.12770000     -34.17310000     -74.05410000
C      -43.18640000     -34.00670000     -70.68690000
C      -45.22850000     -35.00990000     -69.76430000
C      -44.57600000     -34.72150000     -68.61470000
S      -42.19760000     -33.48780000     -71.96590000
S      -43.11710000     -33.81340000     -68.91020000
H      -45.06320000     -34.55380000     -67.64500000
