40
Properties=species:S:1:pos:R:3 #=T CELL(abcABC):=T 1.889726e+02=T 90.00000=T Traj:=T positionsangstrom=T Step:=T 0=T Bead:=T pbc="F F F"
C      -44.83280000     -35.34260000     -67.85760000
C      -45.27290000     -34.00490000     -67.63010000
C      -44.39590000     -32.97030000     -67.98850000
C      -43.04580000     -33.28780000     -68.35700000
C      -42.53890000     -34.58860000     -68.17760000
C      -43.49030000     -35.69560000     -68.05150000
H      -45.53670000     -36.22450000     -67.82640000
H      -44.75800000     -31.96190000     -68.08810000
H      -41.41500000     -34.75060000     -68.31870000
H      -43.18210000     -36.73770000     -68.00960000
C      -42.20470000     -32.07070000     -68.77160000
H      -41.21900000     -32.44730000     -68.99880000
H      -41.96400000     -31.40760000     -67.88380000
C      -46.77360000     -33.71470000     -67.52060000
H      -47.08380000     -33.94940000     -66.45470000
H      -46.92110000     -32.63560000     -67.57980000
S      -42.99700000     -30.95140000     -69.99290000
S      -47.79380000     -34.51910000     -68.81800000
C      -43.72250000     -32.05570000     -71.27660000
H      -42.99560000     -32.58390000     -71.90520000
H      -44.20260000     -32.85730000     -70.78740000
C      -46.80600000     -34.39400000     -70.39040000
H      -46.83960000     -35.43280000     -70.83460000
H      -45.78760000     -34.08360000     -70.14710000
C      -47.46630000     -33.40420000     -71.35070000
H      -48.59690000     -33.46720000     -71.25320000
H      -47.34720000     -32.33950000     -71.15990000
C      -44.81810000     -31.37180000     -72.09560000
H      -44.41330000     -30.44420000     -72.44060000
H      -45.72290000     -31.16030000     -71.46630000
C      -45.09180000     -32.12170000     -73.39380000
C      -44.26230000     -32.00270000     -74.47840000
C      -46.05280000     -33.14590000     -73.63370000
H      -43.51700000     -31.17170000     -74.54820000
C      -46.06770000     -33.52760000     -74.99660000
C      -47.13920000     -33.69560000     -72.86380000
C      -47.81830000     -34.59340000     -73.61600000
S      -44.69580000     -32.95690000     -75.90330000
S      -47.30580000     -34.74520000     -75.28000000
H      -48.71130000     -35.15330000     -73.28840000
