40
Properties=species:S:1:pos:R:3 #=T CELL(abcABC):=T 1.889726e+02=T 90.00000=T Traj:=T positionsangstrom=T Step:=T 0=T Bead:=T pbc="F F F"
C      -45.91310000     -30.81230000     -70.06240000
C      -47.18830000     -31.27430000     -70.45070000
C      -47.50280000     -31.48000000     -71.81450000
C      -46.45710000     -31.15390000     -72.76560000
C      -45.21280000     -30.61960000     -72.36320000
C      -44.97950000     -30.40240000     -71.03480000
H      -45.77130000     -30.69980000     -69.02740000
H      -48.32720000     -32.15060000     -72.03590000
H      -44.35500000     -30.42350000     -73.00760000
H      -43.95300000     -30.04790000     -70.74700000
C      -46.62310000     -31.62510000     -74.21710000
H      -46.30710000     -30.87560000     -74.92970000
H      -47.64100000     -31.85260000     -74.30410000
C      -48.17870000     -31.78030000     -69.37560000
H      -48.23780000     -30.99070000     -68.59610000
H      -49.14180000     -32.00930000     -69.71110000
S      -45.65960000     -33.10880000     -74.66760000
S      -47.52210000     -33.32880000     -68.54140000
C      -46.55350000     -34.44770000     -73.64370000
H      -46.94840000     -33.95590000     -72.81220000
H      -47.33110000     -34.82790000     -74.34190000
C      -47.59910000     -34.58520000     -69.96210000
H      -47.45880000     -34.07080000     -70.96700000
H      -48.61500000     -35.07250000     -69.93960000
C      -46.42150000     -35.58110000     -69.81210000
H      -46.40060000     -36.03920000     -68.87710000
H      -46.42990000     -36.30830000     -70.65240000
C      -45.56050000     -35.66610000     -73.26940000
H      -45.22000000     -36.01540000     -74.22270000
H      -46.16650000     -36.38750000     -72.73900000
C      -44.35980000     -35.33900000     -72.44680000
C      -43.19150000     -35.06240000     -73.08150000
C      -44.24030000     -34.90800000     -71.00900000
H      -43.23290000     -35.21950000     -74.16710000
C      -42.98680000     -34.34330000     -70.76000000
C      -45.10910000     -34.84960000     -69.86960000
C      -44.44640000     -34.39780000     -68.74940000
S      -41.92320000     -34.20030000     -72.20420000
S      -42.84620000     -33.83270000     -69.12020000
H      -44.90750000     -34.18540000     -67.81840000
