40
Properties=species:S:1:pos:R:3 #=T CELL(abcABC):=T 1.889726e+02=T 90.00000=T Traj:=T positionsangstrom=T Step:=T 0=T Bead:=T pbc="F F F"
C      -46.10460000     -30.46710000     -69.84470000
C      -47.22950000     -31.21730000     -70.34290000
C      -47.15600000     -31.57490000     -71.75500000
C      -46.12070000     -31.26240000     -72.60430000
C      -45.01030000     -30.58210000     -72.03010000
C      -45.08370000     -30.07260000     -70.74890000
H      -46.07770000     -30.15630000     -68.82150000
H      -47.94350000     -32.24870000     -72.10670000
H      -44.04740000     -30.55710000     -72.56890000
H      -44.23300000     -29.65110000     -70.27720000
C      -46.20800000     -31.67870000     -74.08440000
H      -45.87290000     -30.87210000     -74.73860000
H      -47.27250000     -32.00720000     -74.14640000
C      -48.26330000     -31.73800000     -69.44660000
H      -48.43880000     -31.06320000     -68.51540000
H      -49.19680000     -31.74830000     -70.00570000
S      -45.33070000     -33.22650000     -74.62340000
S      -47.86650000     -33.34310000     -68.70730000
C      -46.45130000     -34.50170000     -73.78580000
H      -46.84040000     -34.01870000     -72.89110000
H      -47.25010000     -34.81650000     -74.49270000
C      -47.71030000     -34.44090000     -70.09250000
H      -47.61250000     -33.84980000     -70.97880000
H      -48.63290000     -35.08360000     -70.06670000
C      -46.55060000     -35.47960000     -69.94380000
H      -46.83690000     -36.08930000     -69.09820000
H      -46.65270000     -36.13400000     -70.80600000
C      -45.61040000     -35.70410000     -73.35380000
H      -45.24190000     -36.10100000     -74.27830000
H      -46.19380000     -36.47730000     -72.82950000
C      -44.39280000     -35.33360000     -72.52290000
C      -43.22620000     -34.98400000     -73.16760000
C      -44.32670000     -34.91080000     -71.12300000
H      -42.89130000     -35.18090000     -74.14580000
C      -43.07570000     -34.39570000     -70.83170000
C      -45.14150000     -34.97050000     -69.92810000
C      -44.56850000     -34.32500000     -68.85780000
S      -41.92670000     -34.37340000     -72.08250000
S      -42.94450000     -33.81360000     -69.21260000
H      -44.97780000     -34.18550000     -67.85260000
