40
Properties=species:S:1:pos:R:3 #=T CELL(abcABC):=T 1.889726e+02=T 90.00000=T Traj:=T positionsangstrom=T Step:=T 0=T Bead:=T pbc="F F F"
C      -45.51870000     -31.12030000     -69.97410000
C      -46.83710000     -31.18430000     -70.49620000
C      -47.05470000     -31.14370000     -71.88130000
C      -45.91800000     -31.16840000     -72.77000000
C      -44.59120000     -31.08390000     -72.25930000
C      -44.40320000     -31.11140000     -70.82930000
H      -45.36580000     -31.30120000     -68.84990000
H      -48.04080000     -31.24080000     -72.38250000
H      -43.73280000     -31.10150000     -72.94910000
H      -43.52160000     -30.75860000     -70.39140000
C      -46.15130000     -31.37000000     -74.26680000
H      -45.68110000     -30.49580000     -74.74720000
H      -47.27190000     -31.39230000     -74.43850000
C      -48.04810000     -31.25420000     -69.57290000
H      -47.75730000     -30.67890000     -68.64240000
H      -48.87790000     -30.79300000     -70.10830000
S      -45.41860000     -32.98430000     -74.81060000
S      -48.26410000     -32.99230000     -68.83270000
C      -46.34460000     -34.21010000     -73.77160000
H      -46.71100000     -33.66130000     -72.88330000
H      -47.29690000     -34.49490000     -74.27260000
C      -48.05310000     -34.15410000     -70.29790000
H      -47.85880000     -33.43190000     -71.09720000
H      -48.96190000     -34.70970000     -70.40270000
C      -46.92640000     -35.18820000     -70.20720000
H      -47.15720000     -35.89070000     -69.35660000
H      -47.09260000     -35.66260000     -71.24220000
C      -45.44450000     -35.43140000     -73.42580000
H      -45.04760000     -35.66070000     -74.44280000
H      -46.08310000     -36.14470000     -73.03670000
C      -44.35210000     -35.12130000     -72.45380000
C      -43.07320000     -35.19040000     -72.91330000
C      -44.37630000     -34.81900000     -71.00750000
H      -42.75100000     -35.35310000     -73.94070000
C      -43.15130000     -34.60970000     -70.52510000
C      -45.46860000     -34.70520000     -70.04850000
C      -44.94930000     -34.31460000     -68.86870000
S      -41.88730000     -34.76910000     -71.69740000
S      -43.13780000     -34.29120000     -68.79300000
H      -45.35680000     -34.02160000     -67.91650000
