40
Properties=species:S:1:pos:R:3 #=T CELL(abcABC):=T 1.889726e+02=T 90.00000=T Traj:=T positionsangstrom=T Step:=T 0=T Bead:=T pbc="F F F"
C      -47.62390000     -34.44230000     -73.94700000
C      -47.02100000     -33.22030000     -74.17650000
C      -47.35440000     -32.07470000     -73.46790000
C      -48.33540000     -32.19520000     -72.51960000
C      -48.79750000     -33.47050000     -72.08550000
C      -48.39710000     -34.59630000     -72.78640000
H      -47.56220000     -35.32250000     -74.59190000
H      -47.07800000     -31.14810000     -73.85130000
H      -49.42480000     -33.56870000     -71.21480000
H      -48.78650000     -35.64200000     -72.63580000
C      -48.58250000     -30.95670000     -71.58530000
H      -49.45010000     -31.21580000     -70.93390000
H      -49.00540000     -30.10900000     -72.11490000
C      -46.07040000     -32.96310000     -75.36020000
H      -45.79780000     -33.84980000     -76.06310000
H      -46.36170000     -32.19440000     -76.09040000
S      -47.09150000     -30.38990000     -70.64610000
S      -44.44790000     -32.26020000     -74.81720000
C      -46.64000000     -32.03200000     -69.93210000
H      -47.42490000     -32.12480000     -69.20560000
H      -46.75650000     -32.85060000     -70.58940000
C      -43.80340000     -33.58120000     -73.57910000
H      -42.75730000     -33.88830000     -73.88640000
H      -44.45800000     -34.42490000     -73.82440000
C      -43.65760000     -33.08480000     -72.16750000
H      -42.88820000     -32.27230000     -72.09570000
H      -44.63330000     -32.58170000     -71.94720000
C      -45.23250000     -31.94330000     -69.29450000
H      -45.32340000     -31.28030000     -68.42090000
H      -44.51300000     -31.49430000     -70.01690000
C      -44.51140000     -33.15910000     -68.87060000
C      -44.64680000     -33.67690000     -67.59430000
C      -43.73750000     -34.04440000     -69.75310000
H      -45.47070000     -33.22440000     -67.00520000
C      -43.32910000     -35.20130000     -69.03530000
C      -43.32990000     -34.08070000     -71.12460000
C      -42.56870000     -35.16420000     -71.39700000
S      -43.88780000     -35.23920000     -67.35740000
S      -42.31290000     -36.26690000     -69.96630000
H      -42.17910000     -35.36520000     -72.43140000
