40
Properties=species:S:1:pos:R:3 #=T CELL(abcABC):=T 1.889726e+02=T 90.00000=T Traj:=T positionsangstrom=T Step:=T 0=T Bead:=T pbc="F F F"
C      -45.54870000     -30.84910000     -69.96300000
C      -46.83950000     -31.05550000     -70.48740000
C      -47.09490000     -31.13930000     -71.87540000
C      -46.00170000     -31.21310000     -72.73310000
C      -44.65030000     -31.02340000     -72.26980000
C      -44.41320000     -30.83820000     -70.86770000
H      -45.38950000     -30.67590000     -68.90800000
H      -48.10960000     -31.38430000     -72.15370000
H      -43.92140000     -31.21130000     -73.05120000
H      -43.33640000     -31.02190000     -70.53330000
C      -46.14900000     -31.46740000     -74.23660000
H      -45.62610000     -30.63540000     -74.74480000
H      -47.23330000     -31.32940000     -74.49060000
C      -47.95460000     -31.27280000     -69.52880000
H      -47.91800000     -30.59610000     -68.65280000
H      -48.97940000     -31.27030000     -69.95240000
S      -45.45460000     -33.13960000     -74.84220000
S      -47.91080000     -32.98460000     -68.82210000
C      -46.33730000     -34.38060000     -73.85480000
H      -46.71470000     -33.91810000     -72.98950000
H      -47.14340000     -34.85470000     -74.47650000
C      -47.97130000     -34.10010000     -70.26870000
H      -47.64200000     -33.49980000     -71.12650000
H      -49.05120000     -34.35140000     -70.43760000
C      -46.98650000     -35.36170000     -70.16660000
H      -47.42130000     -35.98980000     -69.34580000
H      -47.21150000     -35.97630000     -70.97810000
C      -45.43740000     -35.49600000     -73.40770000
H      -45.07390000     -35.91700000     -74.34570000
H      -46.08110000     -36.36500000     -73.17470000
C      -44.36530000     -35.19490000     -72.45260000
C      -43.04850000     -35.05050000     -72.97620000
C      -44.45850000     -34.96640000     -71.06320000
H      -42.66860000     -35.10630000     -73.98120000
C      -43.20580000     -34.52880000     -70.54090000
C      -45.47650000     -35.05330000     -70.00630000
C      -45.00630000     -34.62670000     -68.76840000
S      -41.96120000     -34.45890000     -71.71250000
S      -43.25990000     -34.23280000     -68.79080000
H      -45.52090000     -34.50220000     -67.90170000
