40
Properties=species:S:1:pos:R:3 #=T CELL(abcABC):=T 1.889726e+02=T 90.00000=T Traj:=T positionsangstrom=T Step:=T 0=T Bead:=T pbc="F F F"
C      -45.20380000     -37.61420000     -73.08810000
C      -44.67560000     -36.96100000     -71.90840000
C      -43.87070000     -35.84440000     -72.06530000
C      -43.45770000     -35.37200000     -73.30870000
C      -43.91740000     -36.10140000     -74.40820000
C      -44.70940000     -37.19720000     -74.30720000
H      -45.76760000     -38.45650000     -72.85860000
H      -43.64990000     -35.27680000     -71.15910000
H      -43.68580000     -35.68190000     -75.45900000
H      -45.12190000     -37.65400000     -75.21690000
C      -42.72290000     -33.99200000     -73.49610000
H      -41.93500000     -34.15210000     -74.24070000
H      -42.39570000     -33.65340000     -72.52410000
C      -45.04340000     -37.36300000     -70.51850000
H      -45.37130000     -38.41950000     -70.51420000
H      -44.14440000     -37.37140000     -69.79050000
S      -43.88050000     -32.60480000     -74.11310000
S      -46.50870000     -36.50360000     -69.74970000
C      -45.62800000     -33.19230000     -73.75740000
H      -46.26100000     -32.52680000     -74.42100000
H      -45.77500000     -34.18740000     -74.06320000
C      -45.89840000     -34.82640000     -69.10020000
H      -45.23200000     -34.42480000     -69.83160000
H      -45.47190000     -34.88610000     -68.13710000
C      -47.00920000     -33.77420000     -69.14060000
H      -47.51260000     -33.98300000     -70.06810000
H      -47.76020000     -33.90620000     -68.35970000
C      -46.03630000     -33.07450000     -72.28830000
H      -45.40740000     -33.76190000     -71.73410000
H      -47.10450000     -33.29310000     -72.22080000
C      -45.87680000     -31.73980000     -71.61230000
C      -45.43460000     -30.63240000     -72.23100000
C      -46.09000000     -31.48500000     -70.17840000
H      -45.05230000     -30.62710000     -73.27140000
C      -45.81270000     -30.17300000     -69.84320000
C      -46.52600000     -32.28040000     -69.03660000
C      -46.63900000     -31.51290000     -67.88220000
S      -45.09860000     -29.26390000     -71.15770000
S      -46.13570000     -29.83250000     -68.15060000
H      -46.95970000     -31.75030000     -66.85840000
