40
Properties=species:S:1:pos:R:3 #=T CELL(abcABC):=T 1.889726e+02=T 90.00000=T Traj:=T positionsangstrom=T Step:=T 0=T Bead:=T pbc="F F F"
C      -47.34520000     -34.83390000     -73.84480000
C      -46.87670000     -33.59310000     -74.21150000
C      -47.33310000     -32.41200000     -73.54890000
C      -48.10470000     -32.56230000     -72.40050000
C      -48.58850000     -33.83850000     -72.07690000
C      -48.21700000     -34.96550000     -72.76060000
H      -47.09170000     -35.72560000     -74.38620000
H      -46.84730000     -31.56290000     -73.80480000
H      -49.31150000     -33.86830000     -71.30960000
H      -48.78700000     -35.87380000     -72.52520000
C      -48.64010000     -31.31900000     -71.75990000
H      -49.55550000     -31.58220000     -71.18580000
H      -48.96570000     -30.50650000     -72.44680000
C      -45.93210000     -33.42830000     -75.36310000
H      -45.56250000     -34.28580000     -75.75010000
H      -46.34190000     -32.85280000     -76.12050000
S      -47.45770000     -30.46410000     -70.64440000
S      -44.33910000     -32.35740000     -74.94830000
C      -46.71800000     -31.92330000     -69.62210000
H      -47.19030000     -32.09160000     -68.62800000
H      -46.83280000     -32.77830000     -70.28920000
C      -43.70290000     -33.43190000     -73.62250000
H      -42.61190000     -33.36310000     -73.69460000
H      -44.00770000     -34.45760000     -73.90940000
C      -44.15250000     -33.05800000     -72.20450000
H      -43.64920000     -32.13240000     -71.86800000
H      -45.20700000     -33.10960000     -72.15940000
C      -45.22390000     -31.65730000     -69.50560000
H      -45.10990000     -30.93590000     -68.70500000
H      -44.81460000     -31.30140000     -70.48780000
C      -44.56750000     -32.94550000     -68.97090000
C      -44.48030000     -33.18290000     -67.62850000
C      -43.90370000     -33.95520000     -69.76760000
H      -44.98310000     -32.69360000     -66.82340000
C      -43.28130000     -34.89470000     -68.91000000
C      -43.64300000     -34.08830000     -71.19970000
C      -42.81810000     -35.15610000     -71.39040000
S      -43.50520000     -34.65990000     -67.24930000
S      -42.49910000     -36.10270000     -69.91740000
H      -42.37490000     -35.44380000     -72.37480000
