40
Properties=species:S:1:pos:R:3 #=T CELL(abcABC):=T 1.889726e+02=T 90.00000=T Traj:=T positionsangstrom=T Step:=T 0=T Bead:=T pbc="F F F"
C      -45.49450000     -30.91200000     -69.97530000
C      -46.80750000     -31.11770000     -70.50540000
C      -47.04480000     -31.29210000     -71.85360000
C      -45.96910000     -31.26060000     -72.74900000
C      -44.60140000     -31.14030000     -72.27860000
C      -44.43030000     -30.93440000     -70.89840000
H      -45.40580000     -30.73840000     -68.89450000
H      -48.08050000     -31.33270000     -72.21110000
H      -43.86150000     -31.18080000     -73.10450000
H      -43.43810000     -30.87110000     -70.43170000
C      -46.17010000     -31.49140000     -74.20590000
H      -45.83420000     -30.69960000     -74.84520000
H      -47.20160000     -31.62220000     -74.49480000
C      -47.96710000     -31.29390000     -69.53680000
H      -47.96950000     -30.59500000     -68.73870000
H      -48.93780000     -31.11970000     -70.05570000
S      -45.41690000     -33.07050000     -74.82180000
S      -48.11910000     -32.97260000     -68.85980000
C      -46.37890000     -34.28950000     -73.80020000
H      -46.79900000     -33.74160000     -72.92450000
H      -47.25440000     -34.66020000     -74.29410000
C      -47.98860000     -33.93140000     -70.43130000
H      -47.70580000     -33.40030000     -71.30920000
H      -48.93030000     -34.40880000     -70.77720000
C      -47.03800000     -35.15140000     -70.18370000
H      -47.27260000     -35.67050000     -69.27480000
H      -47.16490000     -35.87240000     -70.99970000
C      -45.49490000     -35.40240000     -73.36170000
H      -44.86380000     -35.88430000     -74.14660000
H      -46.07010000     -36.19740000     -72.85850000
C      -44.39370000     -35.03160000     -72.44080000
C      -43.07940000     -35.07140000     -72.92300000
C      -44.45120000     -34.85310000     -71.01310000
H      -42.83810000     -35.10510000     -73.95930000
C      -43.16220000     -34.52830000     -70.51840000
C      -45.53770000     -34.81540000     -70.00200000
C      -44.95240000     -34.53890000     -68.76140000
S      -41.89050000     -34.70240000     -71.72460000
S      -43.15580000     -34.31090000     -68.77570000
H      -45.34790000     -34.55580000     -67.80890000
