40
Properties=species:S:1:pos:R:3 #=T CELL(abcABC):=T 1.889726e+02=T 90.00000=T Traj:=T positionsangstrom=T Step:=T 0=T Bead:=T pbc="F F F"
C      -47.39100000     -34.70620000     -73.74940000
C      -46.88420000     -33.42120000     -74.14540000
C      -47.21650000     -32.28070000     -73.42760000
C      -48.25960000     -32.38590000     -72.46570000
C      -48.79180000     -33.64030000     -72.20150000
C      -48.38290000     -34.82240000     -72.83020000
H      -46.96900000     -35.60980000     -74.23040000
H      -46.91130000     -31.24830000     -73.79170000
H      -49.58080000     -33.74360000     -71.43860000
H      -48.74400000     -35.78380000     -72.53390000
C      -48.69300000     -31.15680000     -71.72020000
H      -49.53070000     -31.41210000     -71.07460000
H      -48.92690000     -30.33210000     -72.37060000
C      -45.89590000     -33.30640000     -75.32460000
H      -45.69130000     -34.41410000     -75.55360000
H      -46.46040000     -32.92060000     -76.30350000
S      -47.32610000     -30.43040000     -70.68840000
S      -44.33860000     -32.49370000     -75.01030000
C      -46.75280000     -31.90220000     -69.80840000
H      -47.36210000     -32.10900000     -68.92750000
H      -46.94470000     -32.77820000     -70.43980000
C      -43.43920000     -33.48630000     -73.68240000
H      -42.37170000     -33.12970000     -73.82300000
H      -43.49900000     -34.57300000     -73.91420000
C      -43.96300000     -33.14780000     -72.29650000
H      -43.79730000     -32.08680000     -72.03220000
H      -45.08580000     -33.07960000     -72.30120000
C      -45.27250000     -31.71410000     -69.30380000
H      -45.37530000     -31.08360000     -68.37660000
H      -44.77450000     -31.02960000     -69.91730000
C      -44.47170000     -32.96530000     -68.82710000
C      -44.48240000     -33.34710000     -67.51440000
C      -43.86500000     -33.90740000     -69.71600000
H      -44.74060000     -32.65700000     -66.69850000
C      -43.42360000     -34.99900000     -68.94800000
C      -43.51300000     -34.03580000     -71.17630000
C      -42.79420000     -35.15140000     -71.38300000
S      -43.71130000     -34.89560000     -67.23570000
S      -42.44000000     -36.12490000     -69.93840000
H      -42.43830000     -35.46690000     -72.31810000
