40
Properties=species:S:1:pos:R:3 #=T CELL(abcABC):=T 1.889726e+02=T 90.00000=T Traj:=T positionsangstrom=T Step:=T 0=T Bead:=T pbc="F F F"
C      -47.02720000     -34.90340000     -73.84420000
C      -47.01620000     -33.56440000     -74.29430000
C      -47.66900000     -32.60020000     -73.52840000
C      -48.39610000     -32.89200000     -72.35830000
C      -48.44870000     -34.25060000     -71.96250000
C      -47.73920000     -35.24000000     -72.66150000
H      -46.46780000     -35.64640000     -74.31350000
H      -47.57050000     -31.52500000     -73.78960000
H      -49.02820000     -34.27040000     -70.95960000
H      -47.74940000     -36.23650000     -72.22140000
C      -48.94690000     -31.71190000     -71.50110000
H      -49.56510000     -32.03680000     -70.65030000
H      -49.53990000     -31.07120000     -72.15160000
C      -46.15590000     -33.18750000     -75.46320000
H      -46.00130000     -34.09990000     -76.07460000
H      -46.67360000     -32.51700000     -76.13520000
S      -47.68590000     -30.71500000     -70.74660000
S      -44.33520000     -32.58920000     -75.17930000
C      -46.62140000     -32.03670000     -69.92480000
H      -47.15800000     -32.28340000     -68.96430000
H      -46.57920000     -32.97460000     -70.49660000
C      -43.81390000     -33.63170000     -73.78410000
H      -42.73090000     -33.59950000     -73.90380000
H      -44.12970000     -34.63500000     -73.96490000
C      -44.13010000     -33.19830000     -72.33580000
H      -43.79530000     -32.19560000     -72.10240000
H      -45.26510000     -33.09510000     -72.24730000
C      -45.23790000     -31.52610000     -69.60720000
H      -45.31520000     -30.64900000     -68.91220000
H      -44.83580000     -31.05140000     -70.49910000
C      -44.44030000     -32.60350000     -68.98720000
C      -44.28830000     -32.74540000     -67.63580000
C      -43.81310000     -33.73260000     -69.70760000
H      -44.65780000     -31.94300000     -66.98180000
C      -43.24970000     -34.64370000     -68.83180000
C      -43.59930000     -34.03310000     -71.14610000
C      -42.72940000     -35.13030000     -71.29420000
S      -43.34400000     -34.16770000     -67.10820000
S      -42.50280000     -35.93990000     -69.69180000
H      -42.51120000     -35.62180000     -72.21280000
