40
Properties=species:S:1:pos:R:3 #=T CELL(abcABC):=T 1.889726e+02=T 90.00000=T Traj:=T positionsangstrom=T Step:=T 0=T Bead:=T pbc="F F F"
C      -47.14640000     -35.67560000     -73.58900000
C      -47.01820000     -34.40140000     -74.20270000
C      -47.75940000     -33.35080000     -73.58040000
C      -48.54550000     -33.45710000     -72.44870000
C      -48.62170000     -34.74170000     -71.87520000
C      -47.97950000     -35.82300000     -72.49720000
H      -46.67180000     -36.51040000     -74.13270000
H      -47.58830000     -32.35360000     -74.05430000
H      -49.10870000     -34.80930000     -70.95340000
H      -47.90700000     -36.81400000     -72.06890000
C      -49.15230000     -32.28120000     -71.62420000
H      -49.70660000     -32.63200000     -70.74300000
H      -49.90430000     -31.77180000     -72.23190000
C      -46.08550000     -34.07560000     -75.33500000
H      -45.64100000     -35.00490000     -75.73810000
H      -46.73690000     -33.60310000     -76.15310000
S      -47.87670000     -31.09750000     -71.15710000
S      -44.68250000     -32.90200000     -75.11740000
C      -46.86440000     -32.13530000     -70.01100000
H      -47.47730000     -32.65880000     -69.26610000
H      -46.34410000     -32.87120000     -70.67090000
C      -43.74170000     -33.57380000     -73.62530000
H      -42.64270000     -33.34490000     -73.72450000
H      -43.69220000     -34.64350000     -73.71190000
C      -44.32570000     -33.09960000     -72.30250000
H      -44.43810000     -32.00590000     -72.26000000
H      -45.37520000     -33.45610000     -72.14070000
C      -45.70990000     -31.32560000     -69.45380000
H      -46.09210000     -30.66170000     -68.70050000
H      -45.26640000     -30.66100000     -70.19960000
C      -44.60190000     -32.28800000     -68.92050000
C      -44.24900000     -32.23450000     -67.57810000
C      -43.75640000     -33.17530000     -69.71680000
H      -44.75230000     -31.67380000     -66.78690000
C      -42.94120000     -33.94210000     -68.88950000
C      -43.51960000     -33.61120000     -71.12320000
C      -42.56090000     -34.61130000     -71.20950000
S      -43.00480000     -33.43240000     -67.17740000
S      -41.77080000     -35.00720000     -69.63510000
H      -42.20930000     -35.04490000     -72.10760000
