40
Properties=species:S:1:pos:R:3 #=T CELL(abcABC):=T 1.889726e+02=T 90.00000=T Traj:=T positionsangstrom=T Step:=T 0=T Bead:=T pbc="F F F"
C      -47.09210000     -35.58560000     -73.67600000
C      -46.93170000     -34.25730000     -74.23970000
C      -47.57970000     -33.22840000     -73.57360000
C      -48.42660000     -33.43120000     -72.44170000
C      -48.52460000     -34.72510000     -71.92590000
C      -47.93520000     -35.78290000     -72.62020000
H      -46.47520000     -36.46100000     -74.08260000
H      -47.44330000     -32.18120000     -73.92330000
H      -49.23500000     -34.93840000     -71.10230000
H      -48.15610000     -36.77070000     -72.26000000
C      -49.08510000     -32.25900000     -71.75540000
H      -49.71390000     -32.71360000     -70.97530000
H      -49.77620000     -31.68680000     -72.42160000
C      -46.06910000     -34.00810000     -75.46980000
H      -45.75110000     -34.92280000     -75.94860000
H      -46.68610000     -33.54840000     -76.18640000
S      -47.85650000     -31.06470000     -71.08200000
S      -44.66470000     -32.81650000     -75.03250000
C      -46.85600000     -32.11450000     -69.98970000
H      -47.46860000     -32.50940000     -69.13190000
H      -46.61580000     -32.99200000     -70.57910000
C      -43.85190000     -33.57130000     -73.60890000
H      -42.81050000     -33.28760000     -73.78220000
H      -43.98230000     -34.66020000     -73.66300000
C      -44.37220000     -33.06470000     -72.23270000
H      -44.31350000     -31.96620000     -72.17350000
H      -45.44930000     -33.22750000     -72.23600000
C      -45.63360000     -31.30640000     -69.41570000
H      -46.02530000     -30.70800000     -68.57880000
H      -45.24500000     -30.71100000     -70.21930000
C      -44.58010000     -32.30450000     -68.86210000
C      -44.17320000     -32.28280000     -67.55040000
C      -43.81230000     -33.24290000     -69.65020000
H      -44.58100000     -31.66940000     -66.79330000
C      -42.84000000     -33.91490000     -68.86440000
C      -43.69320000     -33.69010000     -71.04310000
C      -42.80510000     -34.71360000     -71.22860000
S      -42.85400000     -33.43880000     -67.20710000
S      -42.05260000     -35.24830000     -69.68690000
H      -42.65420000     -35.26110000     -72.11460000
