40
Properties=species:S:1:pos:R:3 #=T CELL(abcABC):=T 1.889726e+02=T 90.00000=T Traj:=T positionsangstrom=T Step:=T 0=T Bead:=T pbc="F F F"
C      -47.06500000     -35.86180000     -73.42090000
C      -47.03460000     -34.57590000     -74.05360000
C      -47.69320000     -33.47600000     -73.51110000
C      -48.51670000     -33.64210000     -72.34620000
C      -48.51790000     -34.88260000     -71.77770000
C      -47.84720000     -35.99310000     -72.27360000
H      -46.46090000     -36.63030000     -73.81930000
H      -47.49160000     -32.55730000     -74.07670000
H      -49.11300000     -34.95640000     -70.86460000
H      -47.84920000     -36.92970000     -71.74550000
C      -49.26870000     -32.38500000     -71.76850000
H      -49.94490000     -32.78550000     -71.01990000
H      -49.86290000     -31.88740000     -72.55980000
C      -46.01880000     -34.40790000     -75.22330000
H      -45.55350000     -35.42800000     -75.26630000
H      -46.53100000     -34.28230000     -76.19400000
S      -48.20280000     -31.06400000     -71.08960000
S      -44.81560000     -33.06280000     -75.03120000
C      -47.04530000     -31.95400000     -69.87330000
H      -47.53720000     -32.10120000     -68.88620000
H      -46.98660000     -32.98440000     -70.16990000
C      -43.66600000     -33.79840000     -73.71450000
H      -42.64490000     -33.71890000     -73.99430000
H      -43.81930000     -34.90940000     -73.59550000
C      -44.10730000     -33.20870000     -72.40030000
H      -44.06970000     -32.08100000     -72.41540000
H      -45.19960000     -33.39450000     -72.32110000
C      -45.63290000     -31.34280000     -69.80970000
H      -45.76680000     -30.40910000     -69.23670000
H      -45.36210000     -31.02450000     -70.78990000
C      -44.55490000     -32.16400000     -69.22890000
C      -44.42740000     -32.03200000     -67.83110000
C      -43.65130000     -33.17910000     -69.82810000
H      -44.96430000     -31.43800000     -67.06520000
C      -42.82420000     -33.73390000     -68.88910000
C      -43.34230000     -33.63790000     -71.15740000
C      -42.22210000     -34.45820000     -71.21240000
S      -43.16640000     -33.12830000     -67.29020000
S      -41.59560000     -34.77190000     -69.53520000
H      -41.84960000     -35.02090000     -72.08910000
