40
Properties=species:S:1:pos:R:3 #=T CELL(abcABC):=T 1.889726e+02=T 90.00000=T Traj:=T positionsangstrom=T Step:=T 0=T Bead:=T pbc="F F F"
C      -47.02590000     -35.07580000     -73.73740000
C      -46.93150000     -33.74750000     -74.21670000
C      -47.58050000     -32.77850000     -73.44300000
C      -48.38880000     -33.11170000     -72.28480000
C      -48.50110000     -34.47250000     -71.91270000
C      -47.78620000     -35.46600000     -72.66490000
H      -46.43890000     -35.88880000     -74.29540000
H      -47.69010000     -31.75570000     -73.84480000
H      -49.11740000     -34.73950000     -71.11920000
H      -47.77910000     -36.51280000     -72.37220000
C      -49.07530000     -32.04510000     -71.49830000
H      -49.52490000     -32.45510000     -70.61810000
H      -49.86490000     -31.59900000     -72.09250000
C      -46.14570000     -33.33700000     -75.44180000
H      -46.14520000     -34.13650000     -76.23810000
H      -46.73450000     -32.47530000     -75.92350000
S      -47.75350000     -30.83770000     -71.00220000
S      -44.43890000     -32.72850000     -75.12970000
C      -46.69900000     -32.05700000     -70.00560000
H      -47.20930000     -32.10570000     -69.05500000
H      -46.66940000     -33.09400000     -70.40660000
C      -43.86660000     -33.77700000     -73.71090000
H      -42.77700000     -33.81410000     -73.74980000
H      -44.32140000     -34.74260000     -73.91240000
C      -44.12570000     -33.19310000     -72.29870000
H      -43.78990000     -32.14170000     -72.26680000
H      -45.20030000     -33.08640000     -72.16600000
C      -45.33830000     -31.41290000     -69.71510000
H      -45.42560000     -30.51180000     -69.03740000
H      -44.84530000     -31.17190000     -70.70640000
C      -44.43120000     -32.36960000     -69.05300000
C      -44.25610000     -32.49000000     -67.69320000
C      -43.72990000     -33.48840000     -69.75610000
H      -44.72320000     -31.85010000     -66.96240000
C      -43.18020000     -34.35620000     -68.79990000
C      -43.56520000     -33.94480000     -71.10110000
C      -42.85400000     -35.13870000     -71.16220000
S      -43.20070000     -33.85840000     -67.14000000
S      -42.37800000     -35.67990000     -69.58620000
H      -42.50740000     -35.63530000     -72.04610000
