40
Properties=species:S:1:pos:R:3 #=T CELL(abcABC):=T 1.889726e+02=T 90.00000=T Traj:=T positionsangstrom=T Step:=T 0=T Bead:=T pbc="F F F"
C      -48.04910000     -31.19440000     -71.85870000
C      -47.02580000     -30.46190000     -71.26070000
C      -46.71200000     -30.72230000     -69.92910000
C      -47.33250000     -31.69920000     -69.17780000
C      -48.49000000     -32.35070000     -69.72440000
C      -48.84830000     -32.08560000     -71.10930000
H      -48.11600000     -31.05350000     -72.99770000
H      -45.79220000     -30.22590000     -69.51510000
H      -49.01840000     -33.09250000     -69.15590000
H      -49.61480000     -32.71330000     -71.56660000
C      -46.87840000     -31.94800000     -67.74460000
H      -47.37730000     -32.72250000     -67.16520000
H      -46.94490000     -31.06340000     -67.27070000
C      -46.14740000     -29.50310000     -72.04730000
H      -46.58750000     -28.60050000     -72.52360000
H      -45.32300000     -29.19110000     -71.42740000
S      -45.09300000     -32.27360000     -67.54830000
S      -45.31220000     -30.35760000     -73.54820000
C      -44.81480000     -33.87090000     -68.37210000
H      -43.90330000     -34.24170000     -67.86660000
H      -45.55310000     -34.67580000     -68.17060000
C      -45.21030000     -32.17330000     -73.26320000
H      -45.55890000     -32.76180000     -74.11020000
H      -45.96840000     -32.55830000     -72.53050000
C      -43.77730000     -32.57960000     -72.93240000
H      -43.23980000     -32.11500000     -73.77400000
H      -43.39170000     -32.18580000     -71.99220000
C      -44.70050000     -33.76080000     -69.94870000
H      -43.99740000     -33.00750000     -70.23260000
H      -45.65190000     -33.27600000     -70.15550000
C      -44.46830000     -35.05550000     -70.67200000
C      -44.96800000     -36.31670000     -70.24160000
C      -44.00440000     -35.08170000     -72.03750000
H      -45.55610000     -36.48770000     -69.38980000
C      -44.02220000     -36.35310000     -72.55530000
C      -43.61510000     -34.09320000     -73.05480000
C      -43.13220000     -34.72940000     -74.19420000
S      -44.73640000     -37.50860000     -71.43670000
S      -43.30510000     -36.49130000     -74.14650000
H      -42.98150000     -34.24590000     -75.15010000
