40
Properties=species:S:1:pos:R:3 #=T CELL(abcABC):=T 1.889726e+02=T 90.00000=T Traj:=T positionsangstrom=T Step:=T 0=T Bead:=T pbc="F F F"
C      -46.54710000     -35.62080000     -73.20100000
C      -46.93970000     -34.45890000     -73.83820000
C      -47.96670000     -33.67310000     -73.22010000
C      -48.39120000     -33.96190000     -71.94380000
C      -48.05080000     -35.23890000     -71.36720000
C      -47.13280000     -36.06620000     -72.00950000
H      -45.84800000     -36.25230000     -73.73180000
H      -48.27040000     -32.70310000     -73.71600000
H      -48.45740000     -35.44810000     -70.33680000
H      -46.86730000     -37.07630000     -71.67920000
C      -49.26800000     -32.91750000     -71.24380000
H      -49.53100000     -33.38320000     -70.27600000
H      -50.23020000     -32.64750000     -71.68430000
C      -46.50130000     -34.17540000     -75.24000000
H      -46.28780000     -35.09730000     -75.78200000
H      -47.24580000     -33.62160000     -75.78800000
S      -48.19800000     -31.42680000     -70.91480000
S      -44.98280000     -33.07720000     -75.33020000
C      -46.81340000     -32.19020000     -69.91600000
H      -47.26680000     -32.55020000     -68.94540000
H      -46.53920000     -33.07180000     -70.49060000
C      -43.97320000     -33.40970000     -73.84110000
H      -43.08540000     -32.92590000     -74.09900000
H      -43.87450000     -34.46650000     -73.76560000
C      -44.42130000     -32.83160000     -72.44940000
H      -44.30150000     -31.73900000     -72.60350000
H      -45.56120000     -33.00770000     -72.46150000
C      -45.60190000     -31.24840000     -69.81680000
H      -45.82940000     -30.35150000     -69.29350000
H      -45.25060000     -30.97340000     -70.89170000
C      -44.47480000     -31.92170000     -69.20530000
C      -44.14820000     -31.89320000     -67.84760000
C      -43.70530000     -32.96850000     -69.90020000
H      -44.54250000     -31.31880000     -67.03610000
C      -42.75840000     -33.55990000     -69.06160000
C      -43.63940000     -33.39630000     -71.25200000
C      -42.67300000     -34.34240000     -71.40840000
S      -42.84310000     -33.03650000     -67.36780000
S      -41.90530000     -34.84240000     -69.95550000
H      -42.40030000     -34.82010000     -72.29450000
