40
Properties=species:S:1:pos:R:3 #=T CELL(abcABC):=T 1.889726e+02=T 90.00000=T Traj:=T positionsangstrom=T Step:=T 0=T Bead:=T pbc="F F F"
C      -46.80260000     -35.69500000     -73.25620000
C      -46.89070000     -34.49380000     -74.00140000
C      -47.72890000     -33.54400000     -73.48550000
C      -48.40100000     -33.76510000     -72.25610000
C      -48.34230000     -34.95440000     -71.55580000
C      -47.52090000     -35.91780000     -72.12060000
H      -46.13220000     -36.50180000     -73.49880000
H      -47.87980000     -32.61410000     -73.98160000
H      -48.66790000     -35.07620000     -70.53880000
H      -47.37440000     -36.91180000     -71.58780000
C      -49.27700000     -32.64840000     -71.78960000
H      -49.94260000     -33.09750000     -71.11200000
H      -49.76570000     -32.15370000     -72.58720000
C      -46.18500000     -34.36160000     -75.31640000
H      -45.92030000     -35.32110000     -75.70120000
H      -46.92570000     -33.92370000     -75.99630000
S      -48.46750000     -31.23340000     -70.91490000
S      -44.53000000     -33.36710000     -75.22700000
C      -47.01600000     -32.20580000     -70.17950000
H      -47.36170000     -32.72680000     -69.20170000
H      -46.79080000     -33.06690000     -70.88540000
C      -43.87880000     -33.84750000     -73.56260000
H      -42.76740000     -33.89550000     -73.67750000
H      -44.14640000     -34.92550000     -73.48430000
C      -44.26400000     -33.04780000     -72.31590000
H      -44.17100000     -31.97210000     -72.46170000
H      -45.35500000     -33.06730000     -72.18080000
C      -45.73840000     -31.31330000     -69.99870000
H      -45.98290000     -30.39670000     -69.52630000
H      -45.19820000     -30.99010000     -70.96800000
C      -44.66860000     -32.08550000     -69.27550000
C      -44.42470000     -31.84990000     -67.91210000
C      -43.75490000     -33.02800000     -69.81530000
H      -45.02930000     -31.19970000     -67.34600000
C      -42.88520000     -33.59370000     -68.85050000
C      -43.45140000     -33.56590000     -71.14670000
C      -42.37310000     -34.39060000     -71.23460000
S      -43.05460000     -32.84140000     -67.29770000
S      -41.65060000     -34.73790000     -69.57620000
H      -42.07480000     -34.90790000     -72.09930000
