40
Properties=species:S:1:pos:R:3 #=T CELL(abcABC):=T 1.889726e+02=T 90.00000=T Traj:=T positionsangstrom=T Step:=T 0=T Bead:=T pbc="F F F"
C      -46.68580000     -35.84440000     -73.18350000
C      -47.03780000     -34.66800000     -73.86230000
C      -47.92030000     -33.78350000     -73.24460000
C      -48.38140000     -33.93900000     -71.93300000
C      -48.01860000     -35.09840000     -71.21620000
C      -47.16240000     -36.00760000     -71.88110000
H      -45.95280000     -36.53390000     -73.62380000
H      -48.34830000     -32.96510000     -73.80620000
H      -48.46100000     -35.28040000     -70.24460000
H      -46.76930000     -36.87170000     -71.30160000
C      -49.20170000     -32.92960000     -71.26520000
H      -49.63690000     -33.35250000     -70.36940000
H      -49.95480000     -32.41150000     -71.88120000
C      -46.43130000     -34.28940000     -75.19100000
H      -45.95800000     -35.07740000     -75.77800000
H      -47.25350000     -33.89510000     -75.80270000
S      -48.19960000     -31.40070000     -70.82600000
S      -45.14580000     -32.90610000     -75.19150000
C      -46.83380000     -32.10070000     -69.83240000
H      -47.14170000     -32.26330000     -68.81890000
H      -46.44330000     -33.10800000     -70.14500000
C      -43.97000000     -33.40210000     -73.87880000
H      -42.91110000     -33.05100000     -74.08080000
H      -43.89800000     -34.56160000     -73.81420000
C      -44.38580000     -32.78680000     -72.52070000
H      -44.04650000     -31.78570000     -72.51890000
H      -45.44820000     -32.90350000     -72.21450000
C      -45.60490000     -31.13580000     -69.63310000
H      -45.91530000     -30.43370000     -68.84040000
H      -45.40630000     -30.58840000     -70.53780000
C      -44.48770000     -31.96540000     -69.24360000
C      -44.04720000     -31.89440000     -67.92870000
C      -43.74880000     -32.96940000     -70.01240000
H      -44.32600000     -31.18500000     -67.16840000
C      -42.84560000     -33.69020000     -69.17200000
C      -43.56610000     -33.45230000     -71.40160000
C      -42.55370000     -34.35540000     -71.56730000
S      -42.81450000     -33.11380000     -67.54460000
S      -41.85220000     -34.80410000     -69.97770000
H      -42.35320000     -35.00520000     -72.38820000
