40
Properties=species:S:1:pos:R:3 #=T CELL(abcABC):=T 1.889726e+02=T 90.00000=T Traj:=T positionsangstrom=T Step:=T 0=T Bead:=T pbc="F F F"
C      -47.95260000     -31.31820000     -71.90590000
C      -46.96940000     -30.39180000     -71.41260000
C      -46.60300000     -30.55510000     -70.05200000
C      -47.25230000     -31.49180000     -69.21620000
C      -48.27130000     -32.35270000     -69.73080000
C      -48.62270000     -32.30600000     -71.10240000
H      -48.15320000     -31.25480000     -72.95390000
H      -46.03800000     -29.81190000     -69.53210000
H      -48.76720000     -33.06970000     -69.06610000
H      -49.41530000     -32.94850000     -71.46280000
C      -46.90990000     -31.56410000     -67.74120000
H      -47.72220000     -31.98660000     -67.22560000
H      -46.76970000     -30.48660000     -67.34290000
C      -46.16890000     -29.44130000     -72.22040000
H      -46.92920000     -28.76300000     -72.67470000
H      -45.54220000     -28.77940000     -71.61840000
S      -45.30580000     -32.43460000     -67.51240000
S      -45.14500000     -30.18590000     -73.58440000
C      -45.34700000     -33.93650000     -68.53940000
H      -45.05590000     -34.87690000     -68.11210000
H      -46.40230000     -34.10570000     -68.81690000
C      -45.11680000     -32.04110000     -73.21050000
H      -45.84660000     -32.56940000     -73.88180000
H      -45.73270000     -32.20550000     -72.38000000
C      -43.76080000     -32.72400000     -73.08650000
H      -43.06490000     -32.21480000     -73.73640000
H      -43.26180000     -32.44840000     -72.13670000
C      -44.51200000     -33.72280000     -69.80120000
H      -43.54170000     -33.38520000     -69.47720000
H      -44.97320000     -32.93570000     -70.38550000
C      -44.48000000     -35.00170000     -70.66720000
C      -44.58370000     -36.24070000     -70.03810000
C      -44.15050000     -35.08170000     -72.05730000
H      -44.54540000     -36.54130000     -68.98110000
C      -44.06770000     -36.42140000     -72.41150000
C      -43.77320000     -34.20700000     -73.18720000
C      -43.51740000     -34.85010000     -74.31750000
S      -44.29310000     -37.55540000     -71.17350000
S      -43.74910000     -36.62380000     -74.19540000
H      -42.98080000     -34.41880000     -75.17580000
