40
Properties=species:S:1:pos:R:3 #=T CELL(abcABC):=T 1.889726e+02=T 90.00000=T Traj:=T positionsangstrom=T Step:=T 0=T Bead:=T pbc="F F F"
C      -47.07660000     -31.25280000     -71.18540000
C      -47.78330000     -32.46340000     -71.04420000
C      -47.84830000     -33.21650000     -72.22750000
C      -47.37120000     -32.79680000     -73.44440000
C      -46.77040000     -31.50570000     -73.55520000
C      -46.47870000     -30.88030000     -72.33500000
H      -46.88540000     -30.73020000     -70.26420000
H      -48.36110000     -34.13690000     -72.11290000
H      -46.52440000     -31.01470000     -74.45090000
H      -45.88220000     -29.92770000     -72.36490000
C      -47.33230000     -33.68610000     -74.63560000
H      -47.22690000     -33.14160000     -75.66500000
H      -48.31270000     -34.26610000     -74.75790000
C      -48.36400000     -32.80120000     -69.74380000
H      -48.66930000     -31.97290000     -69.20630000
H      -49.25390000     -33.40000000     -69.90830000
S      -45.94440000     -34.84920000     -74.63140000
S      -47.20540000     -33.57840000     -68.48530000
C      -45.80140000     -35.54600000     -72.94340000
H      -46.44380000     -35.07880000     -72.13510000
H      -46.18570000     -36.55350000     -72.89670000
C      -46.66760000     -35.17800000     -69.25300000
H      -46.68730000     -35.03300000     -70.36590000
H      -47.31730000     -35.97280000     -68.90870000
C      -45.16320000     -35.40010000     -68.92330000
H      -45.12170000     -35.30450000     -67.78530000
H      -44.81420000     -36.32340000     -69.28440000
C      -44.33140000     -35.61670000     -72.41190000
H      -43.80430000     -36.14860000     -73.14690000
H      -44.34150000     -36.21300000     -71.45980000
C      -43.70820000     -34.31300000     -72.06480000
C      -43.00260000     -33.50750000     -72.92780000
C      -43.57680000     -33.87660000     -70.70670000
H      -42.96450000     -33.67760000     -73.98600000
C      -42.77750000     -32.76750000     -70.52120000
C      -44.22870000     -34.28500000     -69.38660000
C      -43.79620000     -33.36140000     -68.45700000
S      -42.25940000     -32.14140000     -72.10620000
S      -42.82020000     -32.00810000     -68.99390000
H      -44.10130000     -33.30380000     -67.40820000
