40
Properties=species:S:1:pos:R:3 #=T CELL(abcABC):=T 1.889726e+02=T 90.00000=T Traj:=T positionsangstrom=T Step:=T 0=T Bead:=T pbc="F F F"
C      -46.89190000     -30.75910000     -70.70780000
C      -47.69060000     -31.89650000     -70.70400000
C      -47.97290000     -32.50360000     -71.95880000
C      -47.20850000     -32.23670000     -73.11400000
C      -46.36290000     -31.19860000     -73.03610000
C      -46.24550000     -30.39860000     -71.88330000
H      -46.65930000     -30.35920000     -69.72210000
H      -48.69520000     -33.28730000     -72.04890000
H      -45.78560000     -30.86720000     -73.90360000
H      -45.64560000     -29.49730000     -71.83190000
C      -47.40040000     -33.00380000     -74.40930000
H      -47.40150000     -32.36510000     -75.29890000
H      -48.31300000     -33.60630000     -74.56350000
C      -48.31090000     -32.46030000     -69.48530000
H      -48.64950000     -31.62210000     -68.81560000
H      -49.23110000     -33.11530000     -69.69540000
S      -45.90680000     -34.06830000     -74.67090000
S      -47.02370000     -33.41780000     -68.58610000
C      -46.07930000     -35.42630000     -73.28460000
H      -46.80550000     -34.99120000     -72.64840000
H      -46.64560000     -36.17480000     -73.77640000
C      -46.89470000     -34.94940000     -69.57420000
H      -47.01630000     -34.58560000     -70.58810000
H      -47.72130000     -35.55980000     -69.26640000
C      -45.51450000     -35.65490000     -69.35940000
H      -45.53510000     -35.86020000     -68.28640000
H      -45.33710000     -36.56670000     -69.91570000
C      -44.78400000     -35.90540000     -72.64540000
H      -44.18400000     -36.56620000     -73.28240000
H      -45.11750000     -36.45840000     -71.80560000
C      -43.93990000     -34.76310000     -72.17380000
C      -43.09850000     -34.10480000     -73.05210000
C      -43.76680000     -34.34140000     -70.78500000
H      -42.92120000     -34.39570000     -74.10910000
C      -42.81960000     -33.28870000     -70.69930000
C      -44.30000000     -34.70100000     -69.53000000
C      -43.86750000     -33.90320000     -68.51690000
S      -42.19670000     -32.81690000     -72.22770000
S      -42.60760000     -32.71060000     -69.01980000
H      -44.21680000     -33.86130000     -67.49400000
