40
Properties=species:S:1:pos:R:3 #=T CELL(abcABC):=T 1.889726e+02=T 90.00000=T Traj:=T positionsangstrom=T Step:=T 0=T Bead:=T pbc="F F F"
C      -47.25400000     -36.15030000     -73.68840000
C      -47.28460000     -34.75220000     -73.90560000
C      -47.87380000     -33.97650000     -72.91870000
C      -48.53200000     -34.56740000     -71.83610000
C      -48.61640000     -35.95400000     -71.72130000
C      -47.92730000     -36.73520000     -72.60250000
H      -46.79420000     -36.83600000     -74.35770000
H      -47.70610000     -32.91370000     -72.91330000
H      -49.08800000     -36.42940000     -70.81710000
H      -48.00910000     -37.87920000     -72.47240000
C      -49.18630000     -33.62500000     -70.80830000
H      -49.35040000     -34.04120000     -69.88030000
H      -50.13030000     -33.41910000     -71.19030000
C      -46.61510000     -34.12050000     -75.10520000
H      -45.81440000     -34.72800000     -75.46240000
H      -47.42260000     -34.08420000     -75.84640000
S      -48.23810000     -32.09630000     -70.42040000
S      -45.96100000     -32.42190000     -74.83710000
C      -46.90020000     -32.70800000     -69.32760000
H      -47.24000000     -32.97820000     -68.36540000
H      -46.59990000     -33.72150000     -69.82650000
C      -44.52580000     -32.76440000     -73.74200000
H      -43.74630000     -31.97240000     -74.07480000
H      -44.06190000     -33.66140000     -74.01790000
C      -44.67510000     -32.69770000     -72.29210000
H      -44.92230000     -31.75350000     -71.89910000
H      -45.51340000     -33.35760000     -72.01020000
C      -45.70600000     -31.70140000     -69.15850000
H      -45.93890000     -31.21820000     -68.23560000
H      -45.85590000     -30.82460000     -69.82230000
C      -44.33310000     -32.23730000     -68.98330000
C      -43.66280000     -32.19990000     -67.72910000
C      -43.45010000     -32.83070000     -69.97630000
H      -44.10380000     -31.89260000     -66.82860000
C      -42.11000000     -33.07010000     -69.53700000
C      -43.49240000     -33.08620000     -71.43190000
C      -42.30390000     -33.63620000     -71.89370000
S      -42.05140000     -32.82140000     -67.80540000
S      -41.04660000     -33.81190000     -70.66630000
H      -42.01250000     -33.90820000     -72.97930000
