40
Properties=species:S:1:pos:R:3 #=T CELL(abcABC):=T 1.889726e+02=T 90.00000=T Traj:=T positionsangstrom=T Step:=T 0=T Bead:=T pbc="F F F"
C      -47.39250000     -36.11800000     -73.72160000
C      -47.34050000     -34.70010000     -73.82530000
C      -47.89190000     -33.96340000     -72.74730000
C      -48.46820000     -34.61650000     -71.67270000
C      -48.40650000     -36.03250000     -71.54730000
C      -47.88510000     -36.77790000     -72.58720000
H      -46.96810000     -36.68630000     -74.52510000
H      -47.91610000     -32.82780000     -72.84750000
H      -48.71630000     -36.63690000     -70.70990000
H      -47.87370000     -37.83910000     -72.59020000
C      -49.17810000     -33.71470000     -70.66890000
H      -49.21160000     -34.30970000     -69.65890000
H      -50.25900000     -33.58530000     -71.00680000
C      -46.73000000     -34.10630000     -75.02290000
H      -46.04910000     -34.84450000     -75.42480000
H      -47.46120000     -33.98100000     -75.89700000
S      -48.29410000     -32.16550000     -70.18820000
S      -46.01340000     -32.39030000     -74.82830000
C      -46.73810000     -32.95250000     -69.49610000
H      -46.95860000     -33.47060000     -68.54480000
H      -46.25210000     -33.60510000     -70.17560000
C      -44.36390000     -32.72940000     -73.85290000
H      -43.64700000     -32.01650000     -74.23820000
H      -44.10840000     -33.78380000     -74.11600000
C      -44.65850000     -32.63950000     -72.39900000
H      -45.19590000     -31.63600000     -72.37630000
H      -45.46960000     -33.37950000     -72.17690000
C      -45.70980000     -31.82440000     -69.26660000
H      -46.00380000     -31.22670000     -68.39890000
H      -45.52400000     -31.23260000     -70.17090000
C      -44.29760000     -32.29300000     -69.00560000
C      -43.69570000     -32.26230000     -67.74270000
C      -43.42800000     -32.76860000     -70.03810000
H      -44.08470000     -32.02780000     -66.83210000
C      -42.14940000     -33.07170000     -69.58480000
C      -43.52240000     -32.93100000     -71.48420000
C      -42.35010000     -33.39670000     -72.03670000
S      -42.00440000     -32.81350000     -67.84440000
S      -41.09780000     -33.71890000     -70.79620000
H      -41.92040000     -33.51840000     -73.10350000
