40
Properties=species:S:1:pos:R:3 #=T CELL(abcABC):=T 1.889726e+02=T 90.00000=T Traj:=T positionsangstrom=T Step:=T 0=T Bead:=T pbc="F F F"
C      -48.09200000     -34.36680000     -68.72750000
C      -46.81590000     -34.91380000     -68.48230000
C      -46.29160000     -35.81870000     -69.42690000
C      -47.01610000     -36.29320000     -70.56720000
C      -48.28370000     -35.78650000     -70.75870000
C      -48.80890000     -34.79600000     -69.88660000
H      -48.42800000     -33.54510000     -68.13950000
H      -45.33630000     -36.23070000     -69.22030000
H      -48.75390000     -35.92860000     -71.71540000
H      -49.75040000     -34.42150000     -70.27470000
C      -46.29550000     -37.09890000     -71.65330000
H      -46.71290000     -38.12340000     -71.75610000
H      -45.28310000     -37.31780000     -71.47270000
C      -46.02210000     -34.51510000     -67.32460000
H      -46.37150000     -33.53350000     -67.02760000
H      -46.13430000     -35.12320000     -66.48020000
S      -46.25520000     -36.44060000     -73.29130000
S      -44.29740000     -34.27470000     -67.56820000
C      -45.94470000     -34.62950000     -73.32260000
H      -46.58450000     -34.21540000     -74.10570000
H      -46.28470000     -34.23050000     -72.41170000
C      -44.32090000     -32.81780000     -68.79540000
H      -43.41660000     -32.32010000     -68.53290000
H      -45.19350000     -32.19880000     -68.42820000
C      -44.25720000     -33.04580000     -70.24460000
H      -43.19030000     -33.33400000     -70.40210000
H      -44.86440000     -33.88160000     -70.75990000
C      -44.39360000     -34.25560000     -73.54580000
H      -44.00130000     -34.61600000     -74.48110000
H      -43.79870000     -34.74380000     -72.68580000
C      -44.19600000     -32.77560000     -73.61630000
C      -43.93540000     -32.19930000     -74.85010000
C      -44.20390000     -31.78660000     -72.50450000
H      -43.80030000     -32.67870000     -75.78400000
C      -44.09360000     -30.50280000     -73.02860000
C      -44.41540000     -31.74780000     -71.07530000
C      -44.50520000     -30.46230000     -70.54780000
S      -43.73490000     -30.50290000     -74.76420000
S      -44.33550000     -29.20850000     -71.77360000
H      -44.69820000     -30.32110000     -69.53340000
