40
Properties=species:S:1:pos:R:3 #=T CELL(abcABC):=T 1.889726e+02=T 90.00000=T Traj:=T positionsangstrom=T Step:=T 0=T Bead:=T pbc="F F F"
C      -47.18430000     -35.98260000     -73.63670000
C      -47.32670000     -34.57520000     -73.76260000
C      -48.06830000     -33.85120000     -72.82090000
C      -48.51940000     -34.59890000     -71.67560000
C      -48.34570000     -35.95040000     -71.57700000
C      -47.70750000     -36.67240000     -72.55610000
H      -46.69970000     -36.50520000     -74.47140000
H      -48.17330000     -32.73520000     -73.03510000
H      -48.85630000     -36.43720000     -70.79540000
H      -47.55320000     -37.70370000     -72.43780000
C      -49.20650000     -33.88370000     -70.55840000
H      -49.60830000     -34.62430000     -69.83430000
H      -49.93000000     -33.18530000     -70.92990000
C      -46.86680000     -33.98410000     -75.07750000
H      -46.14380000     -34.63530000     -75.61880000
H      -47.61660000     -33.65020000     -75.77800000
S      -48.27990000     -32.40380000     -69.79640000
S      -46.05700000     -32.36080000     -74.86630000
C      -46.58510000     -33.01720000     -69.52510000
H      -46.66220000     -33.65230000     -68.54800000
H      -46.25450000     -33.67340000     -70.29240000
C      -44.56760000     -32.71150000     -73.89710000
H      -43.91720000     -31.90270000     -74.03290000
H      -44.14800000     -33.64970000     -74.35880000
C      -44.72170000     -32.71090000     -72.38740000
H      -45.09380000     -31.75720000     -72.07290000
H      -45.43910000     -33.43040000     -72.08680000
C      -45.68570000     -31.74080000     -69.25450000
H      -46.08750000     -31.14530000     -68.37570000
H      -45.78380000     -31.12190000     -70.11080000
C      -44.27960000     -32.24170000     -69.07960000
C      -43.68020000     -32.28790000     -67.87130000
C      -43.39950000     -32.77800000     -70.11790000
H      -43.98310000     -31.82200000     -66.99930000
C      -42.18260000     -33.19140000     -69.62430000
C      -43.44330000     -32.95820000     -71.58760000
C      -42.27150000     -33.38500000     -72.12220000
S      -42.08460000     -32.94620000     -67.91790000
S      -41.03650000     -33.55960000     -70.90960000
H      -42.08920000     -33.67720000     -73.17600000
