40
Properties=species:S:1:pos:R:3 #=T CELL(abcABC):=T 1.889726e+02=T 90.00000=T Traj:=T positionsangstrom=T Step:=T 0=T Bead:=T pbc="F F F"
C      -48.05340000     -34.37800000     -68.75150000
C      -46.80230000     -34.91570000     -68.53210000
C      -46.25220000     -35.82180000     -69.47690000
C      -46.84880000     -36.09430000     -70.67800000
C      -48.16360000     -35.61880000     -70.88910000
C      -48.72910000     -34.81160000     -69.91230000
H      -48.48460000     -33.71800000     -68.03130000
H      -45.27010000     -36.18650000     -69.32360000
H      -48.72940000     -35.97280000     -71.73080000
H      -49.73680000     -34.31480000     -69.94850000
C      -46.14050000     -37.13850000     -71.61730000
H      -46.68580000     -38.10550000     -71.53170000
H      -45.05040000     -37.34820000     -71.37350000
C      -46.00580000     -34.64030000     -67.34870000
H      -46.48810000     -33.84740000     -66.68620000
H      -45.90210000     -35.53390000     -66.66050000
S      -46.28900000     -36.48050000     -73.35960000
S      -44.19850000     -34.24270000     -67.73200000
C      -45.89860000     -34.71010000     -73.16940000
H      -46.60680000     -34.15970000     -73.79030000
H      -46.16330000     -34.28600000     -72.16310000
C      -44.38250000     -32.71380000     -68.70730000
H      -43.60680000     -31.97400000     -68.48850000
H      -45.41000000     -32.39410000     -68.53510000
C      -44.37060000     -33.03180000     -70.19890000
H      -43.55660000     -33.58150000     -70.51690000
H      -45.25960000     -33.72960000     -70.33530000
C      -44.35080000     -34.27040000     -73.32400000
H      -43.95020000     -34.83430000     -74.14080000
H      -43.78320000     -34.48660000     -72.39550000
C      -44.24890000     -32.76830000     -73.58760000
C      -44.09000000     -32.21430000     -74.81730000
C      -44.31640000     -31.76860000     -72.50840000
H      -44.01480000     -32.71840000     -75.80780000
C      -44.25610000     -30.46080000     -73.02960000
C      -44.41630000     -31.78520000     -71.09150000
C      -44.23460000     -30.54500000     -70.50050000
S      -44.07310000     -30.42030000     -74.75290000
S      -44.17380000     -29.30380000     -71.70520000
H      -44.30520000     -30.40940000     -69.49320000
