40
Properties=species:S:1:pos:R:3 #=T CELL(abcABC):=T 1.889726e+02=T 90.00000=T Traj:=T positionsangstrom=T Step:=T 0=T Bead:=T pbc="F F F"
C      -48.16220000     -35.63820000     -69.47630000
C      -48.33240000     -34.33490000     -70.01740000
C      -47.63680000     -33.16900000     -69.53380000
C      -46.85430000     -33.31040000     -68.37460000
C      -46.78770000     -34.59030000     -67.76700000
C      -47.34180000     -35.69650000     -68.34980000
H      -48.64420000     -36.48530000     -69.92750000
H      -47.77720000     -32.23580000     -70.09060000
H      -46.12690000     -34.76590000     -66.89950000
H      -47.11000000     -36.70260000     -68.00020000
C      -46.25290000     -32.08160000     -67.68830000
H      -45.31830000     -32.26220000     -67.09930000
H      -46.98160000     -31.76610000     -66.90710000
C      -49.16190000     -34.15590000     -71.30350000
H      -50.16300000     -34.53580000     -71.14300000
H      -49.19970000     -33.12620000     -71.69580000
S      -45.91520000     -30.52510000     -68.73940000
S      -48.45260000     -35.20150000     -72.70110000
C      -44.66140000     -30.90890000     -70.06350000
H      -45.23050000     -30.38500000     -70.87740000
H      -43.76110000     -30.32750000     -69.84380000
C      -46.67080000     -34.89080000     -72.57080000
H      -46.12820000     -35.55050000     -73.24420000
H      -46.33480000     -35.10360000     -71.56530000
C      -46.20690000     -33.47800000     -72.97430000
H      -46.87660000     -33.20640000     -73.83970000
H      -46.28610000     -32.79210000     -72.16980000
C      -44.38530000     -32.38140000     -70.22260000
H      -45.41300000     -32.82380000     -70.46620000
H      -44.05510000     -32.76120000     -69.23040000
C      -43.29170000     -32.71270000     -71.27560000
C      -41.98870000     -32.58470000     -71.08760000
C      -43.58410000     -33.15620000     -72.66700000
H      -41.58200000     -32.38700000     -70.05650000
C      -42.38050000     -33.28790000     -73.35250000
C      -44.78860000     -33.47530000     -73.44660000
C      -44.36590000     -33.94170000     -74.69980000
S      -41.00280000     -32.74260000     -72.47500000
S      -42.59770000     -33.94590000     -74.93180000
H      -44.97590000     -34.16920000     -75.57540000
