40
Properties=species:S:1:pos:R:3 #=T CELL(abcABC):=T 1.889726e+02=T 90.00000=T Traj:=T positionsangstrom=T Step:=T 0=T Bead:=T pbc="F F F"
C      -46.98340000     -34.87620000     -68.15430000
C      -45.83730000     -35.40010000     -68.77850000
C      -45.95830000     -35.95380000     -70.04010000
C      -47.18750000     -35.97780000     -70.71020000
C      -48.32100000     -35.45890000     -70.06070000
C      -48.21140000     -34.85510000     -68.74930000
H      -46.78270000     -34.37360000     -67.21330000
H      -45.11260000     -36.28790000     -70.65700000
H      -49.33430000     -35.52640000     -70.59690000
H      -49.06080000     -34.32640000     -68.26500000
C      -47.31950000     -36.56480000     -72.11840000
H      -47.69990000     -37.57160000     -72.16490000
H      -46.27980000     -36.72190000     -72.40440000
C      -44.61970000     -35.50650000     -67.84140000
H      -44.95840000     -35.03110000     -66.83600000
H      -44.52370000     -36.58310000     -67.63150000
S      -48.14990000     -35.50700000     -73.37750000
S      -43.01120000     -34.91640000     -68.46190000
C      -47.36730000     -33.80600000     -73.16990000
H      -47.51970000     -33.29290000     -74.12830000
H      -47.91710000     -33.24310000     -72.38750000
C      -43.58310000     -33.13650000     -68.75990000
H      -42.58180000     -32.67440000     -68.86640000
H      -44.07940000     -32.78310000     -67.93480000
C      -44.42570000     -32.97960000     -70.07450000
H      -44.26810000     -33.91740000     -70.55260000
H      -45.44360000     -32.97850000     -69.87190000
C      -45.83140000     -33.87500000     -73.01320000
H      -45.44370000     -34.69310000     -73.66640000
H      -45.55900000     -34.10650000     -71.97670000
C      -45.11500000     -32.54380000     -73.24780000
C      -45.10020000     -32.08170000     -74.53650000
C      -44.45910000     -31.65900000     -72.34150000
H      -45.65130000     -32.67590000     -75.31090000
C      -43.95470000     -30.53620000     -72.99470000
C      -44.07400000     -31.81350000     -70.93960000
C      -43.42690000     -30.64450000     -70.48140000
S      -44.31290000     -30.52770000     -74.72110000
S      -43.11250000     -29.51150000     -71.81700000
H      -42.92930000     -30.54270000     -69.51150000
