40
Properties=species:S:1:pos:R:3 #=T CELL(abcABC):=T 1.889726e+02=T 90.00000=T Traj:=T positionsangstrom=T Step:=T 0=T Bead:=T pbc="F F F"
C      -48.20290000     -35.94750000     -69.13290000
C      -48.31930000     -34.82830000     -69.93460000
C      -47.79040000     -33.54720000     -69.56750000
C      -47.20850000     -33.31540000     -68.32900000
C      -47.21870000     -34.43290000     -67.43580000
C      -47.76240000     -35.69580000     -67.90840000
H      -48.69120000     -36.86550000     -69.51760000
H      -47.79990000     -32.72770000     -70.27040000
H      -46.95100000     -34.29670000     -66.41670000
H      -47.67700000     -36.49870000     -67.15070000
C      -46.63860000     -31.94610000     -67.86340000
H      -45.64780000     -32.05220000     -67.32570000
H      -47.44200000     -31.54590000     -67.22630000
C      -48.96930000     -34.98530000     -71.29940000
H      -49.79230000     -35.72110000     -71.24370000
H      -49.44050000     -34.09970000     -71.61100000
S      -46.23640000     -30.78290000     -69.22710000
S      -47.87490000     -35.69940000     -72.59990000
C      -44.46450000     -31.33170000     -69.81210000
H      -44.28730000     -30.66570000     -70.67500000
H      -43.64680000     -31.15160000     -69.08690000
C      -46.23260000     -34.93300000     -72.41030000
H      -45.62480000     -35.61020000     -73.05230000
H      -45.77460000     -35.06990000     -71.43880000
C      -46.12070000     -33.48240000     -72.99250000
H      -46.83190000     -33.31720000     -73.81750000
H      -46.50430000     -32.81910000     -72.19670000
C      -44.40480000     -32.79730000     -70.23010000
H      -45.47520000     -33.09670000     -70.56320000
H      -44.06740000     -33.42970000     -69.34980000
C      -43.20450000     -33.00010000     -71.25120000
C      -41.88110000     -32.86020000     -70.95020000
C      -43.49280000     -33.02180000     -72.68090000
H      -41.24390000     -32.63610000     -70.05190000
C      -42.34170000     -32.88140000     -73.43620000
C      -44.72080000     -33.08380000     -73.42190000
C      -44.46560000     -33.02910000     -74.75440000
S      -40.93490000     -32.55370000     -72.45200000
S      -42.70020000     -32.77180000     -75.18140000
H      -45.15020000     -33.31250000     -75.53020000
