40
Properties=species:S:1:pos:R:3 #=T CELL(abcABC):=T 1.889726e+02=T 90.00000=T Traj:=T positionsangstrom=T Step:=T 0=T Bead:=T pbc="F F F"
C      -46.62770000     -34.42610000     -68.09250000
C      -46.12350000     -35.62220000     -68.70990000
C      -46.71510000     -36.15730000     -69.84140000
C      -47.83800000     -35.56900000     -70.43400000
C      -48.35040000     -34.37500000     -69.80490000
C      -47.76750000     -33.80210000     -68.63430000
H      -46.09610000     -33.89840000     -67.25870000
H      -46.33400000     -37.15300000     -70.32280000
H      -49.17440000     -33.90510000     -70.28730000
H      -48.28540000     -32.91240000     -68.37650000
C      -48.41690000     -36.08800000     -71.65640000
H      -49.56760000     -36.05350000     -71.64120000
H      -48.05840000     -37.16330000     -71.82670000
C      -44.86470000     -36.30130000     -68.24970000
H      -44.49250000     -35.75810000     -67.43400000
H      -45.00950000     -37.36580000     -67.98640000
S      -47.92120000     -35.23390000     -73.28680000
S      -43.54360000     -36.24230000     -69.47270000
C      -47.33620000     -33.43080000     -72.71770000
H      -48.04620000     -32.64110000     -72.90310000
H      -47.15900000     -33.40660000     -71.62830000
C      -43.43730000     -34.45940000     -69.83180000
H      -42.40590000     -34.15070000     -69.60280000
H      -44.13860000     -34.06930000     -69.03590000
C      -43.88230000     -33.92430000     -71.16380000
H      -43.36870000     -34.46660000     -71.92180000
H      -44.97620000     -34.02240000     -71.45290000
C      -46.05000000     -33.21420000     -73.49820000
H      -46.37570000     -33.16070000     -74.51910000
H      -45.39080000     -34.13040000     -73.41590000
C      -45.31300000     -31.89840000     -73.31210000
C      -45.57930000     -30.83800000     -74.15490000
C      -44.26910000     -31.62950000     -72.34210000
H      -46.29150000     -30.83340000     -74.98410000
C      -43.72040000     -30.33270000     -72.46470000
C      -43.49130000     -32.43300000     -71.39720000
C      -42.45900000     -31.75440000     -70.77260000
S      -44.50070000     -29.47150000     -73.71670000
S      -42.39190000     -30.04490000     -71.35340000
H      -41.71130000     -32.22240000     -70.10560000
