40
Properties=species:S:1:pos:R:3 #=T CELL(abcABC):=T 1.889726e+02=T 90.00000=T Traj:=T positionsangstrom=T Step:=T 0=T Bead:=T pbc="F F F"
C      -47.01190000     -34.66180000     -67.90800000
C      -45.98670000     -35.50840000     -68.43300000
C      -46.29370000     -36.08910000     -69.68160000
C      -47.40050000     -35.81140000     -70.47150000
C      -48.41590000     -35.04220000     -69.88030000
C      -48.22410000     -34.47740000     -68.64250000
H      -46.77120000     -34.11920000     -66.97750000
H      -45.58130000     -36.88130000     -70.06850000
H      -49.40790000     -34.80380000     -70.32050000
H      -48.92140000     -33.73550000     -68.23230000
C      -47.58270000     -36.41240000     -71.85960000
H      -48.38870000     -37.19600000     -71.81660000
H      -46.63940000     -36.82700000     -72.13720000
C      -44.60930000     -35.81130000     -67.73320000
H      -44.32540000     -35.14180000     -66.86820000
H      -44.61960000     -36.85990000     -67.50580000
S      -48.18910000     -35.14880000     -73.09860000
S      -43.25340000     -35.71880000     -68.98060000
C      -47.05140000     -33.67900000     -72.81190000
H      -47.68090000     -32.78090000     -73.03000000
H      -46.82110000     -33.58100000     -71.72820000
C      -43.11590000     -33.94620000     -69.55020000
H      -42.11180000     -33.62300000     -69.39650000
H      -43.69800000     -33.25030000     -68.84790000
C      -43.63690000     -33.73660000     -70.97030000
H      -43.00500000     -34.22950000     -71.65920000
H      -44.65590000     -34.10060000     -71.07950000
C      -45.73470000     -33.65670000     -73.75300000
H      -46.02900000     -33.86820000     -74.82890000
H      -45.03460000     -34.44980000     -73.54570000
C      -45.02030000     -32.30010000     -73.72210000
C      -45.27090000     -31.33980000     -74.69740000
C      -44.25180000     -31.77960000     -72.59710000
H      -45.76990000     -31.49140000     -75.68490000
C      -43.98150000     -30.42010000     -72.80490000
C      -43.62930000     -32.22070000     -71.33450000
C      -43.16760000     -31.23210000     -70.53210000
S      -44.59040000     -29.73400000     -74.27410000
S      -43.17030000     -29.65620000     -71.40430000
H      -42.63400000     -31.47140000     -69.63470000
