40
Properties=species:S:1:pos:R:3 #=T CELL(abcABC):=T 1.889726e+02=T 90.00000=T Traj:=T positionsangstrom=T Step:=T 0=T Bead:=T pbc="F F F"
C      -48.34320000     -31.04370000     -69.19560000
C      -47.04650000     -30.63220000     -69.47750000
C      -45.93710000     -31.16870000     -68.75630000
C      -46.14680000     -32.11790000     -67.76370000
C      -47.48660000     -32.45950000     -67.43000000
C      -48.58430000     -31.99270000     -68.12730000
H      -49.18370000     -30.75570000     -69.79810000
H      -45.01310000     -30.72750000     -69.03640000
H      -47.64800000     -33.25610000     -66.60330000
H      -49.55700000     -32.30390000     -67.76500000
C      -45.04980000     -32.82200000     -66.98770000
H      -45.27420000     -33.20390000     -66.00200000
H      -44.22790000     -32.19300000     -66.90650000
C      -46.75480000     -29.67490000     -70.62700000
H      -47.48790000     -28.87260000     -70.58990000
H      -45.72400000     -29.33000000     -70.61830000
S      -44.78750000     -34.50000000     -67.84960000
S      -47.17690000     -30.42680000     -72.37190000
C      -44.32780000     -34.09670000     -69.59100000
H      -44.44670000     -33.02240000     -69.78500000
H      -43.30180000     -34.33310000     -69.70020000
C      -45.91540000     -31.77710000     -72.36410000
H      -45.96230000     -32.19040000     -71.33840000
H      -44.87070000     -31.41010000     -72.38520000
C      -46.22910000     -32.82050000     -73.41700000
H      -47.05320000     -33.48760000     -73.05570000
H      -46.67470000     -32.25840000     -74.28900000
C      -45.20680000     -34.77190000     -70.62910000
H      -45.97050000     -34.09970000     -70.93480000
H      -45.62220000     -35.68460000     -70.10470000
C      -44.52810000     -35.37330000     -71.88750000
C      -43.65790000     -36.41320000     -71.76990000
C      -44.37980000     -34.73440000     -73.20550000
H      -43.38730000     -36.97180000     -70.90340000
C      -43.42310000     -35.33210000     -73.99380000
C      -45.04580000     -33.64870000     -73.86160000
C      -44.58470000     -33.47260000     -75.14270000
S      -42.80800000     -36.82840000     -73.32790000
S      -43.44850000     -34.65540000     -75.63680000
H      -44.98680000     -32.68830000     -75.70410000
