40
Properties=species:S:1:pos:R:3 #=T CELL(abcABC):=T 1.889726e+02=T 90.00000=T Traj:=T positionsangstrom=T Step:=T 0=T Bead:=T pbc="F F F"
C      -45.28930000     -35.12600000     -74.40660000
C      -46.62730000     -34.72150000     -74.15100000
C      -47.26040000     -35.36710000     -73.07740000
C      -46.65070000     -36.26770000     -72.20420000
C      -45.30280000     -36.64000000     -72.44500000
C      -44.65720000     -36.06060000     -73.54140000
H      -44.65910000     -34.81030000     -75.37280000
H      -48.22800000     -35.00740000     -72.86980000
H      -44.82400000     -37.33100000     -71.76070000
H      -43.62700000     -36.38960000     -73.61740000
C      -47.30800000     -36.84360000     -71.01100000
H      -46.79160000     -37.76400000     -70.76140000
H      -48.30290000     -37.12060000     -71.26550000
C      -47.23080000     -33.66450000     -75.01500000
H      -46.51210000     -33.40210000     -75.78820000
H      -48.15200000     -33.94510000     -75.50000000
S      -47.49270000     -35.72080000     -69.55300000
S      -47.65550000     -32.07090000     -74.12120000
C      -45.85060000     -34.83430000     -69.36900000
H      -45.19830000     -35.30060000     -68.63070000
H      -45.25960000     -34.83940000     -70.26840000
C      -46.01310000     -31.60850000     -73.43480000
H      -46.16800000     -30.47860000     -73.19210000
H      -45.14600000     -31.67480000     -74.10220000
C      -45.70250000     -32.37260000     -72.15720000
H      -46.57350000     -32.37350000     -71.55540000
H      -45.55980000     -33.47380000     -72.41010000
C      -46.15010000     -33.38800000     -68.95140000
H      -46.68220000     -33.44330000     -68.01010000
H      -46.85010000     -32.93630000     -69.66300000
C      -44.86940000     -32.62020000     -68.86120000
C      -44.15300000     -32.50960000     -67.70070000
C      -44.22500000     -31.99430000     -69.97560000
H      -44.40710000     -32.95910000     -66.78200000
C      -42.97130000     -31.47650000     -69.67050000
C      -44.45660000     -31.91860000     -71.39980000
C      -43.41690000     -31.25320000     -72.02830000
S      -42.70890000     -31.60660000     -67.92080000
S      -42.05950000     -30.78270000     -70.99160000
H      -43.27430000     -31.14990000     -73.12260000
