40
Properties=species:S:1:pos:R:3 #=T CELL(abcABC):=T 1.889726e+02=T 90.00000=T Traj:=T positionsangstrom=T Step:=T 0=T Bead:=T pbc="F F F"
C      -45.61900000     -35.05200000     -74.95360000
C      -46.75160000     -34.76310000     -74.13550000
C      -46.97450000     -35.45180000     -72.95930000
C      -45.95580000     -36.23140000     -72.44550000
C      -44.79310000     -36.44940000     -73.20730000
C      -44.59680000     -35.79380000     -74.44180000
H      -45.52980000     -34.46880000     -75.84310000
H      -47.95530000     -35.29600000     -72.56150000
H      -44.06640000     -37.23100000     -72.93960000
H      -43.62270000     -35.94550000     -74.91680000
C      -46.15820000     -36.93100000     -71.08270000
H      -45.18050000     -37.14730000     -70.67470000
H      -46.67270000     -37.86950000     -71.11610000
C      -47.81820000     -33.82520000     -74.62940000
H      -47.66510000     -33.66050000     -75.67360000
H      -48.72930000     -34.38790000     -74.49090000
S      -47.08220000     -35.96180000     -69.85950000
S      -47.95530000     -32.27110000     -73.73040000
C      -45.69850000     -34.92870000     -69.12040000
H      -45.36390000     -35.48060000     -68.26150000
H      -44.92510000     -34.92590000     -69.88760000
C      -46.16610000     -32.01310000     -73.32360000
H      -46.12430000     -30.89340000     -73.40830000
H      -45.56080000     -32.44380000     -74.10270000
C      -45.69320000     -32.57800000     -72.00280000
H      -46.54630000     -32.71110000     -71.31850000
H      -45.27850000     -33.61900000     -72.04350000
C      -46.16620000     -33.52340000     -68.76360000
H      -46.60500000     -33.47910000     -67.78010000
H      -47.08400000     -33.31310000     -69.46350000
C      -45.01800000     -32.54250000     -68.77220000
C      -44.28040000     -32.38880000     -67.60830000
C      -44.36190000     -31.89910000     -69.87750000
H      -44.56960000     -32.76490000     -66.61010000
C      -43.13830000     -31.23380000     -69.51470000
C      -44.68680000     -31.70770000     -71.31220000
C      -43.75920000     -30.93420000     -71.93400000
S      -42.68930000     -31.60230000     -67.84620000
S      -42.40820000     -30.43910000     -70.91270000
H      -43.73120000     -30.79770000     -72.98790000
