40
Properties=species:S:1:pos:R:3 #=T CELL(abcABC):=T 1.889726e+02=T 90.00000=T Traj:=T positionsangstrom=T Step:=T 0=T Bead:=T pbc="F F F"
C      -45.68600000     -35.19710000     -74.99730000
C      -46.80670000     -34.90520000     -74.19110000
C      -46.97610000     -35.51850000     -72.92610000
C      -46.00560000     -36.36820000     -72.46620000
C      -44.83830000     -36.58450000     -73.20620000
C      -44.66200000     -35.99030000     -74.46560000
H      -45.62680000     -34.80210000     -75.92720000
H      -47.78470000     -35.10890000     -72.38280000
H      -43.96130000     -37.02480000     -72.76280000
H      -43.74220000     -36.17340000     -75.09400000
C      -46.02710000     -36.96730000     -71.13250000
H      -45.04020000     -37.32770000     -70.77650000
H      -46.66430000     -37.86140000     -71.22930000
C      -47.75280000     -33.94990000     -74.74650000
H      -47.36540000     -33.50480000     -75.66060000
H      -48.77830000     -34.31950000     -74.99930000
S      -46.89400000     -36.08860000     -69.70910000
S      -48.08420000     -32.47200000     -73.60650000
C      -45.62170000     -34.85360000     -69.24460000
H      -45.00570000     -35.37970000     -68.48240000
H      -44.87410000     -34.68840000     -70.08020000
C      -46.43630000     -31.74720000     -73.34010000
H      -46.52790000     -30.71040000     -73.23370000
H      -45.66930000     -31.89660000     -74.13610000
C      -45.86880000     -32.39010000     -72.01240000
H      -46.71950000     -32.25860000     -71.28690000
H      -45.83060000     -33.42560000     -72.29430000
C      -46.12440000     -33.51620000     -68.79130000
H      -46.61580000     -33.58660000     -67.84470000
H      -46.77450000     -33.10770000     -69.55390000
C      -44.81310000     -32.58630000     -68.78570000
C      -44.01660000     -32.40900000     -67.66380000
C      -44.30690000     -31.93390000     -69.92430000
H      -44.28660000     -32.66600000     -66.61820000
C      -43.15520000     -31.24440000     -69.58200000
C      -44.63610000     -31.72020000     -71.31900000
C      -43.75530000     -30.92010000     -71.95370000
S      -42.69050000     -31.28700000     -67.90800000
S      -42.52530000     -30.28210000     -70.83570000
H      -43.82290000     -30.57750000     -73.01860000
