40
Properties=species:S:1:pos:R:3 #=T CELL(abcABC):=T 1.889726e+02=T 90.00000=T Traj:=T positionsangstrom=T Step:=T 0=T Bead:=T pbc="F F F"
C      -46.78660000     -34.63830000     -68.57670000
C      -46.33620000     -35.65900000     -69.42470000
C      -47.10490000     -35.89850000     -70.58580000
C      -48.12750000     -35.08200000     -70.95630000
C      -48.60530000     -34.13530000     -70.07980000
C      -47.96580000     -33.93710000     -68.84300000
H      -46.26970000     -34.52430000     -67.56350000
H      -46.74570000     -36.70180000     -71.16250000
H      -49.32010000     -33.44460000     -70.48870000
H      -48.24290000     -33.05500000     -68.21780000
C      -48.74110000     -35.18060000     -72.38410000
H      -49.65380000     -34.56420000     -72.38960000
H      -49.06560000     -36.16230000     -72.60620000
C      -45.16680000     -36.56930000     -69.13270000
H      -44.62030000     -36.23630000     -68.23960000
H      -45.59560000     -37.52210000     -68.76560000
S      -47.60210000     -34.70440000     -73.71490000
S      -43.99760000     -36.86950000     -70.56380000
C      -46.79350000     -33.18080000     -73.02090000
H      -47.61770000     -32.45750000     -72.93380000
H      -46.55870000     -33.46660000     -72.04400000
C      -43.18940000     -35.18910000     -70.53540000
H      -42.15570000     -35.37240000     -70.60770000
H      -43.47930000     -34.76340000     -69.50950000
C      -43.62820000     -34.21200000     -71.70330000
H      -43.19260000     -34.59870000     -72.58450000
H      -44.71860000     -34.33110000     -71.91170000
C      -45.57200000     -32.72450000     -73.78710000
H      -45.80890000     -32.54750000     -74.81560000
H      -44.90250000     -33.56480000     -73.80530000
C      -44.97330000     -31.55780000     -73.01490000
C      -45.29040000     -30.25810000     -73.24020000
C      -43.94400000     -31.66750000     -71.99850000
H      -45.94350000     -29.94230000     -74.05620000
C      -43.62250000     -30.48280000     -71.41200000
C      -43.22480000     -32.81640000     -71.40620000
C      -42.41490000     -32.39170000     -70.35380000
S      -44.59540000     -29.10010000     -72.00190000
S      -42.48630000     -30.60430000     -70.06790000
H      -41.67380000     -33.00830000     -69.88130000
