40
Properties=species:S:1:pos:R:3 #=T CELL(abcABC):=T 1.889726e+02=T 90.00000=T Traj:=T positionsangstrom=T Step:=T 0=T Bead:=T pbc="F F F"
C      -47.00490000     -34.87860000     -68.64780000
C      -46.41980000     -35.71350000     -69.60920000
C      -47.07310000     -35.82710000     -70.80940000
C      -48.21890000     -35.10070000     -71.13220000
C      -48.84200000     -34.28230000     -70.18100000
C      -48.17630000     -34.09560000     -68.94420000
H      -46.48380000     -34.73260000     -67.69210000
H      -46.60740000     -36.39290000     -71.60460000
H      -49.75950000     -33.71060000     -70.28710000
H      -48.61700000     -33.54770000     -68.16780000
C      -48.78500000     -35.20340000     -72.51040000
H      -49.70880000     -34.53390000     -72.59380000
H      -49.09830000     -36.21870000     -72.75710000
C      -45.24990000     -36.45300000     -69.18830000
H      -44.70360000     -35.91460000     -68.37570000
H      -45.46110000     -37.47650000     -68.86140000
S      -47.52960000     -34.67460000     -73.75790000
S      -43.91250000     -36.72570000     -70.40620000
C      -46.79210000     -33.23990000     -72.95930000
H      -47.51490000     -32.41010000     -72.83180000
H      -46.35510000     -33.48980000     -71.98330000
C      -42.96530000     -35.21500000     -70.54770000
H      -41.91510000     -35.48820000     -70.65310000
H      -42.93620000     -34.69770000     -69.59370000
C      -43.50700000     -34.25950000     -71.63570000
H      -43.08050000     -34.38750000     -72.64720000
H      -44.62310000     -34.38130000     -71.66420000
C      -45.74910000     -32.58120000     -73.85100000
H      -46.25440000     -32.06100000     -74.64520000
H      -44.91490000     -33.23920000     -74.29690000
C      -44.95860000     -31.48970000     -73.01350000
C      -45.26000000     -30.15820000     -73.12780000
C      -44.03950000     -31.68190000     -71.93150000
H      -45.74880000     -29.75260000     -73.94430000
C      -43.61800000     -30.47870000     -71.28660000
C      -43.34450000     -32.85690000     -71.22620000
C      -42.61720000     -32.39140000     -70.14850000
S      -44.27050000     -29.09960000     -72.11970000
S      -42.52990000     -30.68320000     -69.94190000
H      -42.22890000     -32.97470000     -69.37310000
