40
Properties=species:S:1:pos:R:3 #=T CELL(abcABC):=T 1.889726e+02=T 90.00000=T Traj:=T positionsangstrom=T Step:=T 0=T Bead:=T pbc="F F F"
C      -44.96450000     -29.76370000     -69.04650000
C      -44.19730000     -30.15160000     -70.19350000
C      -44.91040000     -30.35250000     -71.46580000
C      -46.22670000     -30.07470000     -71.61010000
C      -46.96810000     -29.51220000     -70.43920000
C      -46.34000000     -29.55760000     -69.23720000
H      -44.57120000     -29.98860000     -68.06390000
H      -44.35700000     -30.74940000     -72.34050000
H      -47.98620000     -29.26240000     -70.46030000
H      -47.03340000     -29.33600000     -68.40460000
C      -46.89110000     -30.25430000     -72.94000000
H      -46.21620000     -29.86020000     -73.71000000
H      -47.74110000     -29.51980000     -72.94160000
C      -42.74570000     -30.27490000     -70.22040000
H      -42.38430000     -30.32030000     -71.26680000
H      -42.27090000     -29.46240000     -69.63610000
S      -47.45010000     -32.01720000     -73.28950000
S      -42.29760000     -31.88990000     -69.37640000
C      -48.00440000     -32.77750000     -71.63250000
H      -48.15000000     -32.00710000     -70.85120000
H      -48.95990000     -33.23070000     -71.82950000
C      -43.16960000     -33.14920000     -70.47080000
H      -42.51370000     -33.52390000     -71.25310000
H      -43.97690000     -32.55760000     -71.02070000
C      -43.91880000     -34.28550000     -69.68610000
H      -43.38680000     -34.57910000     -68.84270000
H      -44.81320000     -33.88070000     -69.27760000
C      -46.96130000     -33.68030000     -71.01630000
H      -47.15550000     -33.84060000     -69.90950000
H      -46.02720000     -33.12850000     -70.95340000
C      -46.63790000     -34.93290000     -71.73230000
C      -47.44310000     -35.69330000     -72.54760000
C      -45.41980000     -35.64910000     -71.47970000
H      -48.40340000     -35.42550000     -72.88910000
C      -45.28970000     -36.82470000     -72.21500000
C      -44.25660000     -35.47720000     -70.60520000
C      -43.29850000     -36.43740000     -70.77250000
S      -46.71660000     -37.12230000     -73.24180000
S      -43.88480000     -37.74450000     -71.86000000
H      -42.36680000     -36.51530000     -70.25140000
