40
Properties=species:S:1:pos:R:3 #=T CELL(abcABC):=T 1.889726e+02=T 90.00000=T Traj:=T positionsangstrom=T Step:=T 0=T Bead:=T pbc="F F F"
C      -45.06670000     -29.72010000     -69.03310000
C      -44.25690000     -30.11030000     -70.20230000
C      -44.87380000     -30.34810000     -71.45530000
C      -46.32600000     -30.06080000     -71.55270000
C      -47.07690000     -29.75590000     -70.38850000
C      -46.43600000     -29.49850000     -69.22280000
H      -44.57180000     -29.30350000     -68.14380000
H      -44.28130000     -30.69930000     -72.31570000
H      -48.15830000     -29.60460000     -70.48050000
H      -46.91230000     -29.01150000     -68.35850000
C      -47.09080000     -30.27700000     -72.86200000
H      -46.63450000     -29.86990000     -73.72820000
H      -48.10930000     -29.85240000     -72.86760000
C      -42.79460000     -30.46720000     -69.93480000
H      -42.22290000     -30.14420000     -70.87630000
H      -42.37470000     -29.84340000     -69.19010000
S      -47.45260000     -32.05520000     -73.27060000
S      -42.29770000     -32.14920000     -69.48660000
C      -48.04170000     -32.69100000     -71.66570000
H      -48.50360000     -31.88240000     -71.02760000
H      -48.94830000     -33.32410000     -71.94190000
C      -43.15410000     -33.21060000     -70.65270000
H      -42.34010000     -33.72510000     -71.24350000
H      -43.77150000     -32.66670000     -71.32870000
C      -43.88550000     -34.27800000     -69.72170000
H      -43.14810000     -34.51790000     -68.90530000
H      -44.76540000     -33.73370000     -69.20480000
C      -47.01190000     -33.58090000     -70.95750000
H      -47.38990000     -33.93180000     -70.00730000
H      -46.15410000     -32.92430000     -70.84510000
C      -46.53380000     -34.79850000     -71.74560000
C      -47.30330000     -35.41140000     -72.64530000
C      -45.33400000     -35.58990000     -71.43440000
H      -48.26150000     -35.08100000     -72.99310000
C      -45.23940000     -36.74840000     -72.21510000
C      -44.21880000     -35.56160000     -70.47850000
C      -43.31890000     -36.58920000     -70.68430000
S      -46.65370000     -36.97240000     -73.23960000
S      -43.80570000     -37.66570000     -71.95080000
H      -42.38710000     -36.68880000     -70.18580000
