40
Properties=species:S:1:pos:R:3 #=T CELL(abcABC):=T 1.889726e+02=T 90.00000=T Traj:=T positionsangstrom=T Step:=T 0=T Bead:=T pbc="F F F"
C      -44.74170000     -29.92210000     -68.11750000
C      -44.58500000     -30.12470000     -69.53630000
C      -45.74070000     -30.52450000     -70.26030000
C      -47.03000000     -30.69100000     -69.68910000
C      -47.12480000     -30.43680000     -68.30290000
C      -45.99270000     -30.19150000     -67.53820000
H      -43.88100000     -29.70250000     -67.52010000
H      -45.68280000     -30.65880000     -71.36130000
H      -48.10810000     -30.49000000     -67.79100000
H      -46.13170000     -30.14610000     -66.42490000
C      -48.22960000     -30.96440000     -70.61850000
H      -48.35080000     -30.16310000     -71.34310000
H      -49.26100000     -30.98120000     -70.16850000
C      -43.26970000     -30.03160000     -70.22690000
H      -43.29120000     -29.67550000     -71.29260000
H      -42.64250000     -29.22730000     -69.79130000
S      -48.14260000     -32.51270000     -71.64490000
S      -42.47650000     -31.67840000     -69.97980000
C      -47.88630000     -33.86920000     -70.41280000
H      -48.04930000     -33.34980000     -69.47160000
H      -48.67670000     -34.62160000     -70.46930000
C      -43.21420000     -32.72980000     -71.27450000
H      -42.76890000     -32.42630000     -72.17490000
H      -44.28000000     -32.59270000     -71.35490000
C      -43.00380000     -34.27790000     -70.90780000
H      -41.92080000     -34.38160000     -70.78090000
H      -43.52300000     -34.49430000     -69.99900000
C      -46.52520000     -34.52250000     -70.39500000
H      -46.43910000     -35.15640000     -69.49190000
H      -45.68080000     -33.81200000     -70.24780000
C      -46.19860000     -35.28730000     -71.68580000
C      -47.19570000     -35.85410000     -72.47120000
C      -44.92330000     -35.45510000     -72.35410000
H      -48.20880000     -35.85680000     -72.13290000
C      -44.97540000     -36.27780000     -73.51640000
C      -43.53460000     -35.09070000     -72.09620000
C      -42.68710000     -35.56190000     -73.07580000
S      -46.62450000     -36.74080000     -73.91520000
S      -43.39270000     -36.54950000     -74.31820000
H      -41.62940000     -35.24530000     -73.15890000
