40
Properties=species:S:1:pos:R:3 #=T CELL(abcABC):=T 1.889726e+02=T 90.00000=T Traj:=T positionsangstrom=T Step:=T 0=T Bead:=T pbc="F F F"
C      -47.38520000     -36.17960000     -69.54970000
C      -46.46440000     -36.31320000     -70.57640000
C      -46.84080000     -35.97870000     -71.86950000
C      -48.06730000     -35.28940000     -72.10400000
C      -49.01980000     -35.27040000     -71.08980000
C      -48.67060000     -35.78340000     -69.85450000
H      -47.17690000     -36.58590000     -68.47500000
H      -46.08920000     -36.16010000     -72.72690000
H      -50.00930000     -34.97670000     -71.36720000
H      -49.48870000     -35.87020000     -69.12730000
C      -48.38820000     -34.74060000     -73.50030000
H      -49.01870000     -33.81180000     -73.35610000
H      -49.00550000     -35.52100000     -73.94810000
C      -45.13960000     -36.97450000     -70.20510000
H      -45.33180000     -37.60420000     -69.31930000
H      -44.77790000     -37.56400000     -71.05890000
S      -46.99010000     -34.45070000     -74.63440000
S      -43.72790000     -35.73150000     -69.99380000
C      -45.86210000     -33.05760000     -74.15050000
H      -45.10840000     -32.99990000     -74.93400000
H      -46.42690000     -32.19580000     -73.92290000
C      -44.18920000     -34.47270000     -68.72060000
H      -43.37830000     -33.93490000     -68.34760000
H      -44.71370000     -35.03990000     -67.96420000
C      -45.21090000     -33.42670000     -69.28690000
H      -45.79940000     -33.79210000     -70.08140000
H      -45.98160000     -33.16140000     -68.55360000
C      -45.00070000     -33.39390000     -72.82100000
H      -44.25240000     -34.18790000     -73.01680000
H      -45.76520000     -33.63530000     -72.06670000
C      -44.23850000     -32.17880000     -72.38160000
C      -43.62200000     -31.29390000     -73.27160000
C      -44.07140000     -31.66750000     -71.00980000
H      -43.65190000     -31.53580000     -74.35840000
C      -43.51550000     -30.39400000     -70.99340000
C      -44.50490000     -32.13110000     -69.69880000
C      -44.30690000     -31.17230000     -68.77960000
S      -43.13120000     -29.76980000     -72.57840000
S      -43.55330000     -29.66120000     -69.40300000
H      -44.39660000     -31.35710000     -67.70630000
