40
Properties=species:S:1:pos:R:3 #=T CELL(abcABC):=T 1.889726e+02=T 90.00000=T Traj:=T positionsangstrom=T Step:=T 0=T Bead:=T pbc="F F F"
C      -44.73670000     -29.92990000     -68.10610000
C      -44.65620000     -30.02820000     -69.50500000
C      -45.82400000     -30.38080000     -70.17410000
C      -47.07310000     -30.62070000     -69.54880000
C      -47.10410000     -30.62450000     -68.17790000
C      -46.01320000     -30.22190000     -67.47930000
H      -43.83270000     -29.70030000     -67.44120000
H      -45.78240000     -30.65650000     -71.24460000
H      -47.92670000     -30.93330000     -67.63330000
H      -46.11990000     -30.01460000     -66.42330000
C      -48.32580000     -31.11650000     -70.30140000
H      -48.64160000     -30.38500000     -71.02840000
H      -49.04720000     -31.34000000     -69.52840000
C      -43.32100000     -30.01740000     -70.16770000
H      -43.42940000     -29.85410000     -71.18520000
H      -42.67380000     -29.32450000     -69.62530000
S      -48.03090000     -32.59870000     -71.38320000
S      -42.38270000     -31.62980000     -70.22230000
C      -47.63010000     -34.04510000     -70.13130000
H      -47.77660000     -33.67520000     -69.08520000
H      -48.38850000     -34.82230000     -70.22200000
C      -43.37440000     -32.64190000     -71.38110000
H      -43.05880000     -32.35770000     -72.38130000
H      -44.45960000     -32.38930000     -71.28510000
C      -43.04550000     -34.13820000     -71.07800000
H      -41.96750000     -34.40960000     -71.03200000
H      -43.45840000     -34.44680000     -70.06860000
C      -46.24480000     -34.55360000     -70.45010000
H      -45.95060000     -35.22310000     -69.65040000
H      -45.60260000     -33.68210000     -70.52540000
C      -46.22250000     -35.29600000     -71.79850000
C      -47.24220000     -35.92830000     -72.45560000
C      -44.97500000     -35.45270000     -72.52570000
H      -48.24080000     -36.11360000     -72.12000000
C      -45.05170000     -36.25660000     -73.64650000
C      -43.58770000     -34.95060000     -72.23150000
C      -42.68170000     -35.50690000     -73.11300000
S      -46.68120000     -36.79890000     -73.91220000
S      -43.46610000     -36.43500000     -74.46350000
H      -41.57800000     -35.48580000     -73.05110000
