40
Properties=species:S:1:pos:R:3 #=T CELL(abcABC):=T 1.889726e+02=T 90.00000=T Traj:=T positionsangstrom=T Step:=T 0=T Bead:=T pbc="F F F"
C      -44.94040000     -30.01370000     -68.29230000
C      -44.69130000     -30.26570000     -69.65230000
C      -45.80850000     -30.48570000     -70.50980000
C      -47.10480000     -30.59650000     -69.93130000
C      -47.31010000     -30.40460000     -68.57020000
C      -46.20910000     -30.04540000     -67.83950000
H      -44.16070000     -29.66870000     -67.70630000
H      -45.65840000     -30.56590000     -71.56790000
H      -48.37780000     -30.40590000     -68.18600000
H      -46.34050000     -29.90560000     -66.74330000
C      -48.30940000     -30.95180000     -70.79180000
H      -48.61830000     -30.09550000     -71.43020000
H      -49.08470000     -31.26170000     -70.14440000
C      -43.21670000     -30.22590000     -70.16090000
H      -43.15610000     -29.96390000     -71.27990000
H      -42.68320000     -29.47310000     -69.60410000
S      -47.94130000     -32.44250000     -71.78430000
S      -42.30550000     -31.79030000     -69.71960000
C      -47.93070000     -33.65100000     -70.47800000
H      -48.10550000     -33.13710000     -69.53120000
H      -48.66100000     -34.46410000     -70.73160000
C      -43.06790000     -32.74260000     -71.13840000
H      -42.40890000     -32.61590000     -72.07840000
H      -44.05510000     -32.32760000     -71.38090000
C      -42.98610000     -34.25280000     -70.79500000
H      -41.97200000     -34.61820000     -70.64000000
H      -43.53500000     -34.40540000     -69.86680000
C      -46.57200000     -34.44500000     -70.43410000
H      -46.55900000     -35.06240000     -69.53640000
H      -45.77900000     -33.70850000     -70.32930000
C      -46.25170000     -35.26020000     -71.69380000
C      -47.21180000     -35.77790000     -72.55920000
C      -44.93840000     -35.47100000     -72.24920000
H      -48.28140000     -35.75070000     -72.41320000
C      -44.97420000     -36.25970000     -73.41450000
C      -43.56990000     -35.14550000     -71.93930000
C      -42.65530000     -35.67340000     -72.84110000
S      -46.59400000     -36.68770000     -73.90730000
S      -43.44630000     -36.61630000     -74.11670000
H      -41.59720000     -35.51010000     -72.63940000
