40
Properties=species:S:1:pos:R:3 #=T CELL(abcABC):=T 1.889726e+02=T 90.00000=T Traj:=T positionsangstrom=T Step:=T 0=T Bead:=T pbc="F F F"
C      -44.26970000     -30.81670000     -68.05880000
C      -44.80320000     -30.47590000     -69.28340000
C      -46.17200000     -30.91150000     -69.49990000
C      -46.68180000     -31.94400000     -68.71490000
C      -46.07500000     -32.27380000     -67.55640000
C      -44.81140000     -31.77190000     -67.17110000
H      -43.36630000     -30.35850000     -67.82350000
H      -46.63370000     -30.57840000     -70.33540000
H      -46.59310000     -33.06940000     -67.01300000
H      -44.28690000     -32.06520000     -66.25710000
C      -47.98580000     -32.51370000     -69.17320000
H      -48.25050000     -32.24220000     -70.20660000
H      -48.80660000     -32.17560000     -68.53070000
C      -44.14110000     -29.57340000     -70.29560000
H      -44.88730000     -29.27210000     -71.07650000
H      -43.74420000     -28.70450000     -69.80160000
S      -48.19220000     -34.40520000     -69.19940000
S      -42.74480000     -30.43920000     -71.22940000
C      -46.46980000     -34.83550000     -69.30920000
H      -45.87010000     -34.39280000     -68.48820000
H      -46.28640000     -35.96900000     -69.22210000
C      -43.60420000     -31.66030000     -72.40540000
H      -43.30890000     -31.39300000     -73.40110000
H      -44.66790000     -31.61080000     -72.38650000
C      -43.12350000     -33.02350000     -72.07910000
H      -42.03830000     -32.98930000     -72.29030000
H      -43.24560000     -33.24350000     -71.02540000
C      -45.66720000     -34.36460000     -70.52280000
H      -44.64570000     -34.50100000     -70.23650000
H      -45.73770000     -33.28360000     -70.63790000
C      -45.92380000     -35.07900000     -71.88920000
C      -46.96530000     -35.93670000     -72.25740000
C      -44.99830000     -34.81530000     -72.98660000
H      -47.80260000     -36.14000000     -71.60610000
C      -45.38360000     -35.45240000     -74.16860000
C      -43.71650000     -34.15530000     -73.02210000
C      -43.13910000     -34.27140000     -74.27740000
S      -46.91460000     -36.42000000     -73.96750000
S      -44.07690000     -35.35340000     -75.39520000
H      -42.13140000     -33.89420000     -74.46300000
