40
Properties=species:S:1:pos:R:3 #=T CELL(abcABC):=T 1.889726e+02=T 90.00000=T Traj:=T positionsangstrom=T Step:=T 0=T Bead:=T pbc="F F F"
C      -44.05330000     -31.06930000     -68.08690000
C      -44.72050000     -30.54340000     -69.22730000
C      -45.91520000     -31.11100000     -69.62330000
C      -46.61620000     -31.90020000     -68.67210000
C      -45.99820000     -32.28410000     -67.56560000
C      -44.64690000     -31.99570000     -67.24620000
H      -42.99780000     -30.73820000     -67.93550000
H      -46.36400000     -30.84620000     -70.54690000
H      -46.55820000     -32.98330000     -66.94120000
H      -44.14610000     -32.32240000     -66.36610000
C      -47.88670000     -32.58520000     -69.04850000
H      -48.13220000     -32.24740000     -70.05090000
H      -48.70000000     -32.20150000     -68.40090000
C      -44.08360000     -29.54370000     -70.12360000
H      -44.78430000     -28.87390000     -70.64320000
H      -43.43910000     -28.87380000     -69.61300000
S      -48.10540000     -34.38220000     -68.89390000
S      -42.98200000     -30.28190000     -71.45880000
C      -46.56800000     -35.29410000     -69.42960000
H      -46.05430000     -35.49850000     -68.48500000
H      -46.98150000     -36.15930000     -69.83050000
C      -43.95670000     -31.62230000     -72.14750000
H      -44.36270000     -31.28720000     -73.15960000
H      -44.78330000     -31.88140000     -71.49010000
C      -43.14450000     -32.92170000     -72.18770000
H      -42.12520000     -32.75390000     -72.56710000
H      -43.01400000     -33.24450000     -71.15500000
C      -45.61910000     -34.65950000     -70.37540000
H      -44.63220000     -35.15650000     -70.07750000
H      -45.44490000     -33.60150000     -70.24030000
C      -45.85140000     -35.07940000     -71.86350000
C      -46.91240000     -35.80100000     -72.34040000
C      -44.91220000     -34.80360000     -72.95580000
H      -47.70830000     -35.99460000     -71.72250000
C      -45.32980000     -35.42450000     -74.11630000
C      -43.75370000     -33.99920000     -73.11010000
C      -43.35280000     -34.07530000     -74.43390000
S      -46.77620000     -36.39300000     -74.02450000
S      -44.27550000     -35.17800000     -75.48080000
H      -42.64340000     -33.41120000     -74.86350000
