40
Properties=species:S:1:pos:R:3 #=T CELL(abcABC):=T 1.889726e+02=T 90.00000=T Traj:=T positionsangstrom=T Step:=T 0=T Bead:=T pbc="F F F"
C      -48.76180000     -35.83840000     -70.48000000
C      -47.41980000     -36.11810000     -70.81440000
C      -47.04880000     -36.08260000     -72.17600000
C      -47.80940000     -35.32010000     -73.05280000
C      -49.15390000     -35.03460000     -72.72780000
C      -49.64210000     -35.31020000     -71.48450000
H      -49.15020000     -35.91450000     -69.42520000
H      -46.05630000     -36.45400000     -72.38320000
H      -49.86060000     -34.52940000     -73.42660000
H      -50.68810000     -35.21950000     -71.31310000
C      -47.21370000     -34.93130000     -74.40280000
H      -47.74040000     -33.96540000     -74.67890000
H      -47.57480000     -35.63860000     -75.14890000
C      -46.37510000     -36.55960000     -69.77720000
H      -46.93860000     -36.86300000     -68.86280000
H      -45.80900000     -37.46270000     -70.09660000
S      -45.45690000     -34.55690000     -74.49010000
S      -45.01900000     -35.24090000     -69.41460000
C      -45.51880000     -32.73940000     -74.19630000
H      -44.49010000     -32.52240000     -74.43930000
H      -46.28090000     -32.27240000     -74.81150000
C      -46.14780000     -33.96830000     -68.71480000
H      -46.02480000     -33.78810000     -67.63650000
H      -47.18960000     -34.36640000     -68.75190000
C      -46.11530000     -32.50140000     -69.30900000
H      -46.71390000     -32.52610000     -70.28650000
H      -46.69580000     -31.87440000     -68.60360000
C      -45.67700000     -32.26180000     -72.74550000
H      -45.87270000     -33.15980000     -72.20170000
H      -46.50190000     -31.54490000     -72.58420000
C      -44.47070000     -31.56160000     -72.17360000
C      -43.49780000     -31.01780000     -72.89060000
C      -44.16050000     -31.51570000     -70.76820000
H      -43.42020000     -31.03240000     -73.98680000
C      -42.94090000     -30.86030000     -70.51180000
C      -44.70200000     -32.01150000     -69.49680000
C      -43.76850000     -31.85800000     -68.44870000
S      -42.09910000     -30.54680000     -71.98250000
S      -42.27220000     -31.13010000     -68.92890000
H      -44.04290000     -31.95410000     -67.42710000
