40
Properties=species:S:1:pos:R:3 #=T CELL(abcABC):=T 1.889726e+02=T 90.00000=T Traj:=T positionsangstrom=T Step:=T 0=T Bead:=T pbc="F F F"
C      -44.44410000     -30.77410000     -68.11260000
C      -44.91790000     -30.58980000     -69.44180000
C      -46.17460000     -31.01750000     -69.77360000
C      -46.99330000     -31.62570000     -68.83680000
C      -46.50780000     -31.82590000     -67.50270000
C      -45.24820000     -31.36190000     -67.15310000
H      -43.35340000     -30.60980000     -67.91020000
H      -46.58800000     -30.84550000     -70.84350000
H      -47.05070000     -32.44860000     -66.82670000
H      -44.86710000     -31.55800000     -66.17480000
C      -48.40250000     -32.12870000     -69.19050000
H      -48.86520000     -31.43710000     -69.94300000
H      -49.07960000     -32.11200000     -68.32580000
C      -44.09780000     -29.83470000     -70.43300000
H      -44.66070000     -29.64410000     -71.29770000
H      -43.60890000     -28.88700000     -70.05890000
S      -48.39160000     -33.87060000     -69.91530000
S      -42.53220000     -30.77820000     -70.97760000
C      -46.78670000     -34.52850000     -69.33190000
H      -46.53570000     -33.98060000     -68.41420000
H      -46.88580000     -35.59160000     -69.27270000
C      -43.31080000     -31.91900000     -72.25880000
H      -43.27510000     -31.58380000     -73.28610000
H      -44.33570000     -31.99880000     -71.93760000
C      -42.72580000     -33.38410000     -72.16190000
H      -41.66110000     -33.33840000     -72.36880000
H      -42.74310000     -33.76980000     -71.10180000
C      -45.62170000     -34.38700000     -70.35310000
H      -44.66500000     -34.73070000     -69.99620000
H      -45.41920000     -33.33990000     -70.49780000
C      -45.76000000     -35.04950000     -71.72230000
C      -46.77170000     -35.89550000     -72.07460000
C      -44.72990000     -35.01080000     -72.77550000
H      -47.55170000     -36.33160000     -71.34390000
C      -45.12880000     -35.73690000     -73.90480000
C      -43.50630000     -34.31440000     -73.03390000
C      -43.05870000     -34.53010000     -74.33030000
S      -46.75140000     -36.36970000     -73.77090000
S      -44.12170000     -35.57500000     -75.24300000
H      -42.29980000     -33.98120000     -74.87020000
