40
Properties=species:S:1:pos:R:3 #=T CELL(abcABC):=T 1.889726e+02=T 90.00000=T Traj:=T positionsangstrom=T Step:=T 0=T Bead:=T pbc="F F F"
C      -43.96150000     -31.15170000     -68.09130000
C      -44.64250000     -30.57010000     -69.19790000
C      -45.92350000     -30.98050000     -69.40650000
C      -46.48540000     -32.04950000     -68.69710000
C      -45.77730000     -32.52530000     -67.55340000
C      -44.49670000     -32.17310000     -67.25720000
H      -42.87590000     -30.88340000     -68.02700000
H      -46.46070000     -30.55020000     -70.33330000
H      -46.24430000     -33.32640000     -66.97180000
H      -43.88420000     -32.62720000     -66.49340000
C      -47.79830000     -32.65150000     -69.14350000
H      -47.85800000     -32.52200000     -70.22640000
H      -48.60720000     -32.03660000     -68.70090000
C      -43.88890000     -29.59230000     -70.08700000
H      -44.55840000     -28.76320000     -70.29410000
H      -43.05740000     -29.22160000     -69.42520000
S      -48.13460000     -34.47500000     -68.78400000
S      -43.10670000     -30.24300000     -71.65930000
C      -46.53680000     -35.29710000     -69.27090000
H      -45.97840000     -35.66420000     -68.36250000
H      -46.83280000     -36.26630000     -69.74890000
C      -44.09930000     -31.75620000     -72.03680000
H      -44.54710000     -31.60270000     -72.99480000
H      -44.87990000     -31.79190000     -71.25340000
C      -43.14260000     -32.95630000     -72.18240000
H      -42.20620000     -32.60650000     -72.71590000
H      -42.89430000     -33.40470000     -71.19420000
C      -45.59080000     -34.62030000     -70.32280000
H      -44.57710000     -34.85130000     -70.00790000
H      -45.79070000     -33.54830000     -70.14800000
C      -45.79720000     -35.12060000     -71.82100000
C      -46.79360000     -35.96470000     -72.23210000
C      -44.98490000     -34.69620000     -72.98820000
H      -47.52830000     -36.35470000     -71.57640000
C      -45.42940000     -35.24760000     -74.16960000
C      -43.86630000     -33.82470000     -73.22630000
C      -43.45080000     -33.89130000     -74.53330000
S      -46.75400000     -36.38430000     -73.96530000
S      -44.42920000     -34.96270000     -75.59190000
H      -42.82050000     -33.22230000     -75.09300000
