40
Properties=species:S:1:pos:R:3 #=T CELL(abcABC):=T 1.889726e+02=T 90.00000=T Traj:=T positionsangstrom=T Step:=T 0=T Bead:=T pbc="F F F"
C      -43.83750000     -31.24540000     -67.94060000
C      -44.76400000     -30.81100000     -68.95420000
C      -45.93640000     -31.52290000     -69.20400000
C      -46.38190000     -32.49230000     -68.21710000
C      -45.43630000     -32.86420000     -67.18580000
C      -44.13790000     -32.27830000     -67.05310000
H      -42.93150000     -30.66840000     -67.91420000
H      -46.56580000     -31.27510000     -70.03580000
H      -45.74030000     -33.57990000     -66.38020000
H      -43.35050000     -32.65480000     -66.40780000
C      -47.74240000     -33.13190000     -68.20390000
H      -48.54990000     -32.48250000     -68.53030000
H      -47.97940000     -33.40280000     -67.14780000
C      -44.36440000     -29.72610000     -69.87480000
H      -45.20100000     -29.37650000     -70.46890000
H      -44.02900000     -28.77060000     -69.37710000
S      -47.83550000     -34.55890000     -69.41450000
S      -43.03850000     -30.20550000     -71.04610000
C      -46.11960000     -35.20580000     -69.53930000
H      -45.66540000     -35.13170000     -68.56150000
H      -46.09610000     -36.22260000     -69.74030000
C      -44.00480000     -31.13980000     -72.39260000
H      -43.71920000     -30.62260000     -73.37430000
H      -45.04450000     -31.08750000     -72.28270000
C      -43.41290000     -32.57920000     -72.52080000
H      -42.40980000     -32.43510000     -72.84360000
H      -43.41870000     -33.06990000     -71.53110000
C      -45.27230000     -34.53290000     -70.59950000
H      -44.21760000     -34.72160000     -70.39230000
H      -45.29370000     -33.44260000     -70.54730000
C      -45.66110000     -35.07900000     -71.94240000
C      -46.64870000     -36.00740000     -72.20400000
C      -45.11900000     -34.54050000     -73.19080000
H      -47.08820000     -36.59470000     -71.38160000
C      -45.67860000     -35.17230000     -74.30030000
C      -44.12610000     -33.53600000     -73.52190000
C      -43.87520000     -33.50410000     -74.90450000
S      -46.82110000     -36.45950000     -73.95190000
S      -44.81850000     -34.75680000     -75.80110000
H      -43.21210000     -32.80740000     -75.44270000
