40
Properties=species:S:1:pos:R:3 #=T CELL(abcABC):=T 1.889726e+02=T 90.00000=T Traj:=T positionsangstrom=T Step:=T 0=T Bead:=T pbc="F F F"
C      -46.19260000     -34.50670000     -69.39850000
C      -45.41580000     -35.41330000     -70.16430000
C      -45.92430000     -35.70520000     -71.46950000
C      -47.00640000     -35.02330000     -71.99440000
C      -47.82780000     -34.25920000     -71.17440000
C      -47.39150000     -34.00510000     -69.85600000
H      -45.81160000     -34.24280000     -68.43460000
H      -45.44880000     -36.44880000     -72.14780000
H      -48.75310000     -33.82380000     -71.64960000
H      -48.13200000     -33.50980000     -69.24730000
C      -47.48710000     -35.20660000     -73.45940000
H      -48.64600000     -35.09710000     -73.47940000
H      -47.23300000     -36.18190000     -73.86330000
C      -44.38060000     -36.30140000     -69.60780000
H      -44.57960000     -36.38060000     -68.49340000
H      -44.58550000     -37.31510000     -70.06560000
S      -46.92550000     -33.88000000     -74.60340000
S      -42.65730000     -35.63130000     -69.79620000
C      -45.12100000     -33.83090000     -74.30850000
H      -44.97030000     -34.49290000     -73.40900000
H      -44.46200000     -34.14680000     -75.06760000
C      -42.65650000     -34.85360000     -71.46150000
H      -43.46320000     -35.17440000     -72.04050000
H      -41.81670000     -35.27050000     -72.09120000
C      -42.54900000     -33.35170000     -71.48260000
H      -41.56600000     -33.11520000     -71.05100000
H      -42.40390000     -32.94370000     -72.46570000
C      -44.73600000     -32.29770000     -73.94400000
H      -45.25000000     -31.65160000     -74.71870000
H      -43.64790000     -32.08240000     -73.93120000
C      -45.34730000     -31.74580000     -72.60880000
C      -46.53970000     -31.09750000     -72.60000000
C      -44.73150000     -31.89480000     -71.30010000
H      -46.93000000     -30.78350000     -73.60950000
C      -45.50490000     -31.24650000     -70.32390000
C      -43.56090000     -32.54770000     -70.71730000
C      -43.45460000     -32.26090000     -69.38980000
S      -46.91740000     -30.47440000     -70.98570000
S      -44.77860000     -31.33890000     -68.75690000
H      -42.67370000     -32.52370000     -68.73950000
