40
Properties=species:S:1:pos:R:3 #=T CELL(abcABC):=T 1.889726e+02=T 90.00000=T Traj:=T positionsangstrom=T Step:=T 0=T Bead:=T pbc="F F F"
C      -46.42880000     -34.86690000     -69.55690000
C      -45.70190000     -35.74840000     -70.35090000
C      -46.05400000     -35.99420000     -71.65970000
C      -47.13920000     -35.28490000     -72.24190000
C      -47.81960000     -34.30740000     -71.44690000
C      -47.43560000     -33.99190000     -70.13110000
H      -46.06180000     -34.82220000     -68.50400000
H      -45.43640000     -36.63700000     -72.23670000
H      -48.53850000     -33.73250000     -72.01040000
H      -47.79390000     -33.10370000     -69.61790000
C      -47.57940000     -35.47500000     -73.68940000
H      -48.64410000     -35.48400000     -73.78230000
H      -47.13380000     -36.47010000     -74.10070000
C      -44.48190000     -36.51630000     -69.66530000
H      -44.78580000     -36.77270000     -68.59310000
H      -44.24670000     -37.45240000     -70.27510000
S      -46.97150000     -33.97260000     -74.66590000
S      -43.02610000     -35.43390000     -69.45770000
C      -45.24750000     -33.76900000     -73.96720000
H      -45.05880000     -34.22770000     -73.05830000
H      -44.60690000     -34.37090000     -74.65330000
C      -42.59170000     -34.83380000     -71.16550000
H      -43.45580000     -35.13100000     -71.81750000
H      -41.73040000     -35.25090000     -71.58670000
C      -42.35360000     -33.32180000     -71.24810000
H      -41.46170000     -33.06250000     -70.67750000
H      -42.20890000     -32.96750000     -72.32880000
C      -44.72280000     -32.35150000     -73.94840000
H      -45.09150000     -31.75630000     -74.74280000
H      -43.62520000     -32.35850000     -74.00660000
C      -45.04230000     -31.65780000     -72.62370000
C      -46.13040000     -30.89800000     -72.67460000
C      -44.54750000     -31.79270000     -71.30700000
H      -46.82730000     -30.84150000     -73.45790000
C      -45.31570000     -31.04630000     -70.35930000
C      -43.44890000     -32.46830000     -70.61460000
C      -43.45160000     -32.21190000     -69.25400000
S      -46.62940000     -30.23500000     -71.09450000
S      -44.80440000     -31.25080000     -68.69760000
H      -42.80030000     -32.71600000     -68.59190000
