40
Properties=species:S:1:pos:R:3 #=T CELL(abcABC):=T 1.889726e+02=T 90.00000=T Traj:=T positionsangstrom=T Step:=T 0=T Bead:=T pbc="F F F"
C      -46.56150000     -34.93320000     -69.43520000
C      -45.91680000     -35.93880000     -70.17750000
C      -46.24740000     -36.15130000     -71.52920000
C      -47.14920000     -35.23680000     -72.18280000
C      -47.74530000     -34.23880000     -71.41470000
C      -47.49750000     -34.08990000     -70.00960000
H      -46.16340000     -34.97440000     -68.39140000
H      -45.73460000     -36.94660000     -71.95780000
H      -48.35130000     -33.51420000     -71.99410000
H      -47.87310000     -33.31710000     -69.35690000
C      -47.39390000     -35.38750000     -73.64510000
H      -48.42800000     -35.33620000     -73.90040000
H      -46.99120000     -36.33480000     -74.01620000
C      -44.77750000     -36.66960000     -69.52240000
H      -44.92180000     -37.02930000     -68.49640000
H      -44.39510000     -37.48980000     -70.15100000
S      -46.64750000     -33.93490000     -74.46960000
S      -43.28190000     -35.53640000     -69.35820000
C      -44.88340000     -33.90940000     -74.03250000
H      -44.65040000     -34.54340000     -73.23110000
H      -44.36230000     -34.39390000     -74.90480000
C      -42.95660000     -34.93680000     -71.11620000
H      -43.86690000     -35.13520000     -71.71000000
H      -42.15950000     -35.57050000     -71.50760000
C      -42.46380000     -33.46950000     -71.09170000
H      -41.57030000     -33.26840000     -70.53550000
H      -42.25940000     -33.04730000     -72.08680000
C      -44.37550000     -32.46980000     -73.88740000
H      -44.73150000     -31.82440000     -74.66640000
H      -43.25530000     -32.48180000     -74.03260000
C      -45.03660000     -31.85310000     -72.67500000
C      -46.10210000     -30.98250000     -72.90940000
C      -44.52750000     -31.82270000     -71.32330000
H      -46.33620000     -30.56260000     -73.87340000
C      -45.34910000     -30.98290000     -70.54460000
C      -43.53430000     -32.42830000     -70.55130000
C      -43.46620000     -32.06250000     -69.26450000
S      -46.59110000     -30.11850000     -71.45610000
S      -44.74570000     -30.88650000     -68.87750000
H      -42.85500000     -32.38200000     -68.47000000
