40
Properties=species:S:1:pos:R:3 #=T CELL(abcABC):=T 1.889726e+02=T 90.00000=T Traj:=T positionsangstrom=T Step:=T 0=T Bead:=T pbc="F F F"
C      -46.62650000     -34.99660000     -69.24910000
C      -45.92930000     -35.93560000     -70.02170000
C      -46.14550000     -35.99440000     -71.41940000
C      -47.04980000     -35.16630000     -72.10760000
C      -47.68540000     -34.17640000     -71.30180000
C      -47.50720000     -34.13500000     -69.90190000
H      -46.44470000     -35.01180000     -68.17390000
H      -45.49970000     -36.80930000     -71.84980000
H      -48.38760000     -33.49550000     -71.73780000
H      -48.03390000     -33.42520000     -69.29050000
C      -47.35910000     -35.32800000     -73.56640000
H      -48.38150000     -35.42650000     -73.71860000
H      -46.86270000     -36.29470000     -73.97820000
C      -44.74420000     -36.70770000     -69.43400000
H      -45.07280000     -36.79840000     -68.38130000
H      -44.64030000     -37.67440000     -69.85310000
S      -46.84730000     -33.93690000     -74.64410000
S      -43.19820000     -35.73250000     -69.34950000
C      -45.03440000     -33.95060000     -74.27160000
H      -44.91320000     -34.61810000     -73.35170000
H      -44.53620000     -34.45850000     -75.08670000
C      -43.20370000     -34.90850000     -70.96140000
H      -44.18630000     -34.72520000     -71.38340000
H      -42.69470000     -35.58580000     -71.69930000
C      -42.53800000     -33.48550000     -70.88310000
H      -41.78630000     -33.50490000     -70.09780000
H      -41.98440000     -33.40680000     -71.80990000
C      -44.26050000     -32.67290000     -73.90120000
H      -44.17510000     -31.98900000     -74.80650000
H      -43.23150000     -32.94940000     -73.69330000
C      -44.89050000     -31.80960000     -72.77250000
C      -45.96150000     -30.95230000     -72.99900000
C      -44.44690000     -31.73870000     -71.33590000
H      -46.63960000     -31.17120000     -73.80480000
C      -45.24440000     -30.81380000     -70.61870000
C      -43.47890000     -32.37790000     -70.49100000
C      -43.52250000     -31.97510000     -69.21400000
S      -46.54020000     -30.16690000     -71.58930000
S      -44.76320000     -30.75370000     -68.97130000
H      -43.04750000     -32.41580000     -68.34060000
