40
Properties=species:S:1:pos:R:3 #=T CELL(abcABC):=T 1.889726e+02=T 90.00000=T Traj:=T positionsangstrom=T Step:=T 0=T Bead:=T pbc="F F F"
C      -45.90880000     -35.08410000     -69.35780000
C      -45.32720000     -35.92670000     -70.29660000
C      -46.09440000     -36.14300000     -71.42070000
C      -47.22410000     -35.30560000     -71.78680000
C      -47.60320000     -34.29660000     -70.94640000
C      -46.98630000     -34.23430000     -69.64670000
H      -45.42400000     -34.99310000     -68.37170000
H      -45.76250000     -36.92530000     -72.02260000
H      -48.35330000     -33.57010000     -71.14220000
H      -47.38490000     -33.54600000     -68.91040000
C      -47.79060000     -35.49340000     -73.22330000
H      -48.90770000     -35.61590000     -73.09130000
H      -47.37280000     -36.41460000     -73.51240000
C      -44.11540000     -36.71710000     -69.93340000
H      -44.32040000     -37.33790000     -68.98890000
H      -43.99560000     -37.56890000     -70.66250000
S      -47.31860000     -34.12650000     -74.37000000
S      -42.56300000     -35.72840000     -69.97430000
C      -45.48370000     -34.15020000     -74.10940000
H      -45.33470000     -34.74040000     -73.21760000
H      -44.97060000     -34.59010000     -74.91970000
C      -42.84450000     -34.60590000     -71.43330000
H      -43.76140000     -34.76800000     -71.84060000
H      -42.07960000     -35.07930000     -72.09560000
C      -42.46790000     -33.14350000     -71.26920000
H      -41.57460000     -33.12020000     -70.73820000
H      -42.21450000     -32.79160000     -72.25590000
C      -44.86940000     -32.72870000     -73.83550000
H      -45.16890000     -32.11720000     -74.69640000
H      -43.80200000     -32.83220000     -73.87800000
C      -45.43210000     -31.95160000     -72.62200000
C      -46.57180000     -31.16680000     -72.59380000
C      -44.79150000     -31.88990000     -71.25650000
H      -47.32310000     -31.02320000     -73.37610000
C      -45.37850000     -30.89740000     -70.49390000
C      -43.50010000     -32.24090000     -70.64330000
C      -43.31590000     -31.59080000     -69.41070000
S      -46.82630000     -30.12290000     -71.18870000
S      -44.62220000     -30.48220000     -69.04020000
H      -42.44610000     -31.60440000     -68.77100000
