40
Properties=species:S:1:pos:R:3 #=T CELL(abcABC):=T 1.889726e+02=T 90.00000=T Traj:=T positionsangstrom=T Step:=T 0=T Bead:=T pbc="F F F"
C      -42.32360000     -31.28920000     -69.54040000
C      -43.49820000     -31.81180000     -70.00840000
C      -43.56540000     -32.30900000     -71.38700000
C      -42.40890000     -32.21460000     -72.13320000
C      -41.23400000     -31.60120000     -71.63970000
C      -41.12070000     -31.18580000     -70.29780000
H      -42.41000000     -31.02960000     -68.47370000
H      -44.48960000     -32.73470000     -71.72120000
H      -40.29130000     -31.74030000     -72.22770000
H      -40.16370000     -30.88190000     -69.95200000
C      -42.22300000     -32.97230000     -73.39970000
H      -41.86420000     -34.00030000     -73.29100000
H      -41.45060000     -32.33010000     -73.92910000
C      -44.69850000     -31.94920000     -69.12760000
H      -44.62610000     -30.95950000     -68.48220000
H      -45.64920000     -31.81840000     -69.64300000
S      -43.72180000     -33.19840000     -74.53330000
S      -44.75290000     -33.27970000     -67.87290000
C      -44.25270000     -35.00070000     -74.20620000
H      -44.80310000     -35.29470000     -75.09050000
H      -43.22240000     -35.52060000     -74.15740000
C      -44.45460000     -34.71420000     -68.85760000
H      -43.89620000     -35.28010000     -68.06370000
H      -43.71630000     -34.56570000     -69.65900000
C      -45.71950000     -35.40890000     -69.46440000
H      -45.35580000     -36.15700000     -70.21870000
H      -46.08850000     -36.12860000     -68.71840000
C      -45.07880000     -35.20880000     -72.86850000
H      -44.42190000     -34.95030000     -72.03630000
H      -45.25980000     -36.30470000     -72.60060000
C      -46.29880000     -34.42940000     -72.68650000
C      -46.98700000     -33.92400000     -73.72690000
C      -47.03030000     -34.23580000     -71.41420000
H      -46.72150000     -33.93110000     -74.80550000
C      -48.29420000     -33.54590000     -71.58880000
C      -46.83850000     -34.62850000     -69.99520000
C      -47.93800000     -34.34680000     -69.27130000
S      -48.55670000     -33.27480000     -73.31760000
S      -49.24950000     -33.57880000     -70.20080000
H      -48.16320000     -34.56170000     -68.19870000
