40
Properties=species:S:1:pos:R:3 #=T CELL(abcABC):=T 1.889726e+02=T 90.00000=T Traj:=T positionsangstrom=T Step:=T 0=T Bead:=T pbc="F F F"
C      -48.54680000     -31.47120000     -69.50700000
C      -47.27360000     -30.88510000     -69.51160000
C      -46.28090000     -31.37810000     -68.67230000
C      -46.53000000     -32.64730000     -68.13030000
C      -47.80420000     -33.23010000     -68.02120000
C      -48.87530000     -32.59340000     -68.73760000
H      -49.36230000     -31.11290000     -70.16280000
H      -45.27220000     -30.99160000     -68.53680000
H      -48.07480000     -34.14340000     -67.48160000
H      -49.84870000     -32.96070000     -68.42480000
C      -45.39360000     -33.32670000     -67.36780000
H      -45.40830000     -33.23840000     -66.36230000
H      -44.43330000     -32.99110000     -67.73820000
C      -47.08200000     -29.56780000     -70.27110000
H      -47.98680000     -28.94590000     -70.28030000
H      -46.36140000     -28.97850000     -69.66800000
S      -45.37810000     -35.18630000     -67.89850000
S      -46.65840000     -29.76050000     -72.00520000
C      -44.31840000     -35.17640000     -69.38400000
H      -43.66430000     -34.30960000     -69.39480000
H      -43.55570000     -36.02250000     -69.39060000
C      -45.37170000     -31.06330000     -72.19960000
H      -44.82190000     -31.22810000     -71.29000000
H      -44.56820000     -30.69190000     -72.84370000
C      -45.92640000     -32.34850000     -72.84870000
H      -46.48040000     -32.97150000     -72.13330000
H      -46.75480000     -32.09040000     -73.54400000
C      -45.13410000     -34.99960000     -70.66360000
H      -45.65320000     -33.99110000     -70.72980000
H      -45.99000000     -35.75660000     -70.62240000
C      -44.25540000     -35.20170000     -71.84970000
C      -43.33380000     -36.24310000     -71.91830000
C      -44.24170000     -34.49000000     -73.09240000
H      -43.04920000     -36.87760000     -71.08630000
C      -43.38400000     -35.04350000     -74.06340000
C      -44.90610000     -33.28900000     -73.59760000
C      -44.51540000     -33.03210000     -74.88980000
S      -42.47700000     -36.45950000     -73.48530000
S      -43.51680000     -34.30610000     -75.62070000
H      -44.89530000     -32.22040000     -75.50000000
