40
Properties=species:S:1:pos:R:3 #=T CELL(abcABC):=T 1.889726e+02=T 90.00000=T Traj:=T positionsangstrom=T Step:=T 0=T Bead:=T pbc="F F F"
C      -45.80600000     -34.96640000     -69.38050000
C      -45.39010000     -35.97980000     -70.29000000
C      -46.08510000     -36.17940000     -71.47160000
C      -47.17460000     -35.30400000     -71.82990000
C      -47.43540000     -34.20960000     -71.05220000
C      -46.86660000     -34.10040000     -69.78600000
H      -45.27130000     -34.82510000     -68.46450000
H      -45.84770000     -36.94250000     -72.14230000
H      -48.13360000     -33.49800000     -71.36470000
H      -47.20220000     -33.24300000     -69.18880000
C      -47.76060000     -35.45330000     -73.18970000
H      -48.85840000     -35.57550000     -73.21620000
H      -47.34330000     -36.21350000     -73.80510000
C      -44.08230000     -36.69050000     -70.05400000
H      -44.10030000     -37.22900000     -69.05430000
H      -43.83620000     -37.51590000     -70.76970000
S      -47.39710000     -33.83970000     -74.21910000
S      -42.63960000     -35.55390000     -69.88740000
C      -45.58160000     -34.01550000     -74.04660000
H      -45.47910000     -34.56390000     -73.13030000
H      -45.15140000     -34.59850000     -74.82430000
C      -42.83430000     -34.60210000     -71.50620000
H      -43.80290000     -34.61530000     -71.95590000
H      -42.16620000     -35.10090000     -72.29820000
C      -42.40210000     -33.20780000     -71.37000000
H      -41.47470000     -33.03580000     -70.87700000
H      -42.20610000     -32.85280000     -72.39760000
C      -44.86990000     -32.66900000     -73.83860000
H      -44.97890000     -31.95130000     -74.69500000
H      -43.80690000     -32.84090000     -73.59960000
C      -45.35390000     -31.93040000     -72.61730000
C      -46.45760000     -31.09910000     -72.72000000
C      -44.68670000     -31.77150000     -71.37800000
H      -47.11580000     -31.16120000     -73.54850000
C      -45.44470000     -30.97590000     -70.49490000
C      -43.51130000     -32.38220000     -70.71660000
C      -43.37750000     -31.87220000     -69.42700000
S      -46.80990000     -30.19830000     -71.21660000
S      -44.73070000     -30.94540000     -68.86440000
H      -42.52640000     -32.29030000     -68.82770000
