40
Properties=species:S:1:pos:R:3 #=T CELL(abcABC):=T 1.889726e+02=T 90.00000=T Traj:=T positionsangstrom=T Step:=T 0=T Bead:=T pbc="F F F"
C      -42.28320000     -31.30390000     -69.52950000
C      -43.43800000     -31.72670000     -70.06560000
C      -43.49040000     -32.22260000     -71.37570000
C      -42.34660000     -32.32880000     -72.08770000
C      -41.12280000     -31.88420000     -71.56210000
C      -41.13430000     -31.31860000     -70.27590000
H      -42.27540000     -30.73150000     -68.57940000
H      -44.48800000     -32.44200000     -71.71050000
H      -40.21360000     -31.81820000     -72.24810000
H      -40.28920000     -30.72050000     -69.93110000
C      -42.36880000     -32.76440000     -73.53340000
H      -41.74580000     -33.62400000     -73.71280000
H      -42.02540000     -32.00060000     -74.21670000
C      -44.66690000     -31.75960000     -69.23290000
H      -44.80640000     -30.82990000     -68.53370000
H      -45.51040000     -31.74750000     -69.84020000
S      -44.03230000     -33.17510000     -74.22570000
S      -44.82840000     -33.24140000     -68.09040000
C      -44.21250000     -35.01230000     -74.09020000
H      -44.65040000     -35.42740000     -75.01260000
H      -43.20090000     -35.39640000     -74.02390000
C      -44.44800000     -34.73310000     -69.13060000
H      -43.75610000     -35.42920000     -68.63900000
H      -43.91250000     -34.46220000     -70.03100000
C      -45.80330000     -35.47160000     -69.38700000
H      -45.61630000     -36.43490000     -69.86460000
H      -46.11660000     -35.86530000     -68.42510000
C      -44.97840000     -35.40160000     -72.82620000
H      -44.30130000     -35.28350000     -71.99300000
H      -45.09080000     -36.49560000     -72.88240000
C      -46.28200000     -34.64300000     -72.69000000
C      -46.99410000     -34.19180000     -73.77740000
C      -46.97670000     -34.35210000     -71.40780000
H      -46.77670000     -34.03810000     -74.82830000
C      -48.19680000     -33.64120000     -71.59960000
C      -46.87470000     -34.62030000     -69.95680000
C      -47.88360000     -34.15530000     -69.13960000
S      -48.49250000     -33.34660000     -73.36620000
S      -49.09350000     -33.32550000     -70.18250000
H      -48.07140000     -34.18250000     -68.04910000
