40
Properties=species:S:1:pos:R:3 #=T CELL(abcABC):=T 1.889726e+02=T 90.00000=T Traj:=T positionsangstrom=T Step:=T 0=T Bead:=T pbc="F F F"
C      -46.05150000     -34.62780000     -69.11180000
C      -45.47140000     -35.46310000     -70.03480000
C      -45.89610000     -35.57280000     -71.36030000
C      -47.06190000     -34.90050000     -71.79290000
C      -47.66500000     -34.04290000     -70.84790000
C      -47.15780000     -33.91000000     -69.54550000
H      -45.63270000     -34.41710000     -68.14970000
H      -45.29380000     -36.27040000     -71.94760000
H      -48.51060000     -33.48630000     -71.03950000
H      -47.44130000     -33.09930000     -68.85820000
C      -47.38810000     -35.09270000     -73.24430000
H      -48.46940000     -35.15380000     -73.30050000
H      -46.99050000     -36.07370000     -73.63310000
C      -44.24870000     -36.26180000     -69.55140000
H      -44.26730000     -36.35270000     -68.47680000
H      -44.22870000     -37.32090000     -69.95660000
S      -47.01140000     -33.72080000     -74.42570000
S      -42.59900000     -35.45680000     -70.03980000
C      -45.13450000     -33.58680000     -74.41710000
H      -44.66940000     -34.23810000     -73.68760000
H      -44.82640000     -33.70490000     -75.53330000
C      -42.76500000     -34.82500000     -71.69230000
H      -43.88090000     -34.84290000     -72.07780000
H      -42.19660000     -35.28270000     -72.52340000
C      -42.42310000     -33.32410000     -71.63440000
H      -41.50790000     -33.07500000     -71.12760000
H      -42.38630000     -32.94920000     -72.65480000
C      -44.68220000     -32.25100000     -74.00230000
H      -44.84220000     -31.52080000     -74.81300000
H      -43.56680000     -32.16900000     -73.93650000
C      -45.33540000     -31.77060000     -72.75480000
C      -46.53870000     -31.09540000     -72.68970000
C      -44.76290000     -31.98260000     -71.39140000
H      -47.32680000     -30.93870000     -73.49650000
C      -45.62710000     -31.52010000     -70.42720000
C      -43.56090000     -32.57120000     -70.86040000
C      -43.47280000     -32.43740000     -69.46470000
S      -46.99380000     -30.65200000     -71.01580000
S      -44.94170000     -31.65170000     -68.84030000
H      -42.80060000     -33.02610000     -68.80290000
