40
Properties=species:S:1:pos:R:3 #=T CELL(abcABC):=T 1.889726e+02=T 90.00000=T Traj:=T positionsangstrom=T Step:=T 0=T Bead:=T pbc="F F F"
C      -45.92570000     -34.93840000     -69.00100000
C      -45.20280000     -35.66000000     -70.01900000
C      -45.76850000     -35.86990000     -71.31220000
C      -47.07830000     -35.41010000     -71.56140000
C      -47.77290000     -34.75600000     -70.56000000
C      -47.17740000     -34.43200000     -69.30910000
H      -45.60150000     -34.77300000     -68.00670000
H      -45.25380000     -36.32670000     -72.16950000
H      -48.75720000     -34.35400000     -70.83360000
H      -47.83570000     -33.90510000     -68.64500000
C      -47.68350000     -35.65070000     -72.91910000
H      -48.74000000     -35.78440000     -72.76600000
H      -47.51890000     -36.64330000     -73.39810000
C      -43.82890000     -36.25590000     -69.81320000
H      -43.76610000     -36.63970000     -68.74830000
H      -43.58380000     -37.04760000     -70.58010000
S      -47.42710000     -34.21010000     -74.03290000
S      -42.54620000     -34.87040000     -69.68640000
C      -45.48700000     -34.05760000     -74.32940000
H      -44.98510000     -34.63210000     -73.59680000
H      -45.28910000     -34.48980000     -75.26600000
C      -42.36420000     -34.35570000     -71.47870000
H      -43.12600000     -34.88180000     -72.05350000
H      -41.46280000     -34.77800000     -71.74360000
C      -42.36760000     -32.84450000     -71.79720000
H      -41.38050000     -32.48420000     -71.48840000
H      -42.42850000     -32.66880000     -72.86390000
C      -45.00530000     -32.57600000     -74.26390000
H      -45.62080000     -32.02070000     -74.94590000
H      -43.97180000     -32.63020000     -74.40150000
C      -45.39650000     -31.93150000     -72.95030000
C      -46.60280000     -31.32220000     -72.82820000
C      -44.76150000     -31.94070000     -71.64250000
H      -47.28690000     -31.28150000     -73.69930000
C      -45.51210000     -31.19450000     -70.70830000
C      -43.47420000     -32.19100000     -71.06200000
C      -43.29360000     -31.80710000     -69.76930000
S      -47.00140000     -30.53900000     -71.29290000
S      -44.76930000     -31.02950000     -69.10910000
H      -42.36930000     -31.72620000     -69.20560000
