40
Properties=species:S:1:pos:R:3 #=T CELL(abcABC):=T 1.889726e+02=T 90.00000=T Traj:=T positionsangstrom=T Step:=T 0=T Bead:=T pbc="F F F"
C      -45.91650000     -34.60580000     -69.04840000
C      -45.17550000     -35.47900000     -69.86160000
C      -45.68020000     -35.81870000     -71.12770000
C      -46.94760000     -35.36000000     -71.51620000
C      -47.71050000     -34.43810000     -70.68700000
C      -47.18460000     -34.06880000     -69.45660000
H      -45.56580000     -34.28040000     -68.11050000
H      -45.12930000     -36.56360000     -71.75960000
H      -48.69830000     -34.03740000     -71.03230000
H      -47.70810000     -33.30420000     -68.92330000
C      -47.54110000     -35.76260000     -72.83070000
H      -48.69430000     -35.93350000     -72.87510000
H      -47.09990000     -36.73870000     -73.18330000
C      -43.84810000     -35.98980000     -69.32550000
H      -43.85250000     -35.98460000     -68.22930000
H      -43.53590000     -37.02620000     -69.64810000
S      -47.18790000     -34.53620000     -74.09200000
S      -42.37660000     -34.91280000     -69.87110000
C      -45.39470000     -34.25390000     -74.15270000
H      -44.95760000     -34.81920000     -73.35120000
H      -45.05600000     -34.66500000     -75.04330000
C      -42.55460000     -34.46080000     -71.66220000
H      -43.39060000     -34.80870000     -72.14970000
H      -41.64700000     -34.88920000     -72.22000000
C      -42.42350000     -32.96080000     -71.78400000
H      -41.47400000     -32.57740000     -71.47570000
H      -42.44280000     -32.80920000     -72.92330000
C      -45.08880000     -32.77300000     -74.11450000
H      -45.39480000     -32.32740000     -75.03820000
H      -44.00430000     -32.70790000     -74.35800000
C      -45.51240000     -31.96810000     -72.87640000
C      -46.71700000     -31.33560000     -72.89270000
C      -44.82410000     -31.83100000     -71.62310000
H      -47.37840000     -31.37940000     -73.72420000
C      -45.61210000     -31.09550000     -70.76060000
C      -43.55680000     -32.22280000     -71.07790000
C      -43.37210000     -31.76850000     -69.80010000
S      -47.22600000     -30.67170000     -71.30610000
S      -44.82960000     -30.90780000     -69.16210000
H      -42.63200000     -32.06600000     -69.16620000
