40
Properties=species:S:1:pos:R:3 #=T CELL(abcABC):=T 1.889726e+02=T 90.00000=T Traj:=T positionsangstrom=T Step:=T 0=T Bead:=T pbc="F F F"
C      -45.88240000     -35.09460000     -69.03210000
C      -45.25160000     -35.87510000     -70.01350000
C      -45.86770000     -36.05500000     -71.31340000
C      -47.08260000     -35.39260000     -71.62410000
C      -47.53260000     -34.44100000     -70.61180000
C      -47.01520000     -34.41590000     -69.35510000
H      -45.44920000     -34.89350000     -68.07870000
H      -45.54290000     -36.77330000     -72.04070000
H      -48.38410000     -33.86310000     -70.91120000
H      -47.50680000     -33.80020000     -68.57220000
C      -47.72880000     -35.51060000     -72.97380000
H      -48.86290000     -35.53100000     -72.86320000
H      -47.35790000     -36.47620000     -73.40010000
C      -43.87210000     -36.35770000     -69.71800000
H      -43.75630000     -36.89040000     -68.76700000
H      -43.56790000     -36.99230000     -70.46460000
S      -47.42610000     -34.10770000     -74.18610000
S      -42.72740000     -34.93840000     -69.69730000
C      -45.50800000     -34.08270000     -74.15270000
H      -45.20250000     -34.74760000     -73.31180000
H      -45.12350000     -34.53100000     -75.16110000
C      -42.56350000     -34.50350000     -71.53690000
H      -43.48470000     -34.80670000     -72.08010000
H      -41.66720000     -35.12490000     -71.95710000
C      -42.31360000     -33.01530000     -71.71940000
H      -41.30140000     -32.72210000     -71.37050000
H      -42.16680000     -32.69960000     -72.82290000
C      -44.81300000     -32.66320000     -74.10400000
H      -44.79770000     -32.12640000     -75.10070000
H      -43.71420000     -32.85030000     -73.95960000
C      -45.39550000     -31.86360000     -72.89190000
C      -46.57780000     -31.22030000     -72.86110000
C      -44.75930000     -31.79920000     -71.60150000
H      -47.36860000     -31.10500000     -73.64100000
C      -45.53870000     -31.10420000     -70.65120000
C      -43.44840000     -32.17940000     -71.06740000
C      -43.29120000     -31.80180000     -69.73410000
S      -47.05650000     -30.55130000     -71.24820000
S      -44.67330000     -30.95780000     -69.15010000
H      -42.39530000     -31.94950000     -69.12710000
