40
Properties=species:S:1:pos:R:3 #=T CELL(abcABC):=T 1.889726e+02=T 90.00000=T Traj:=T positionsangstrom=T Step:=T 0=T Bead:=T pbc="F F F"
C      -45.84970000     -34.23780000     -68.95450000
C      -45.19420000     -35.32930000     -69.55840000
C      -45.87760000     -35.95750000     -70.62870000
C      -47.01030000     -35.46290000     -71.27940000
C      -47.56980000     -34.33760000     -70.63320000
C      -47.07550000     -33.76510000     -69.46650000
H      -45.34580000     -33.70450000     -68.17700000
H      -45.38710000     -36.81490000     -71.09310000
H      -48.47900000     -33.95950000     -70.98490000
H      -47.54450000     -32.87910000     -69.00740000
C      -47.49350000     -36.04670000     -72.56550000
H      -48.57510000     -36.22730000     -72.66980000
H      -47.06250000     -37.08360000     -72.53970000
C      -43.83460000     -35.68480000     -69.07500000
H      -43.95150000     -35.72420000     -67.98280000
H      -43.52950000     -36.60520000     -69.63400000
S      -47.03720000     -35.08710000     -74.10940000
S      -42.60940000     -34.30730000     -69.30790000
C      -45.27620000     -34.71510000     -73.95560000
H      -44.88550000     -35.08340000     -73.02420000
H      -44.74130000     -35.29810000     -74.68640000
C      -42.25920000     -34.34550000     -71.11410000
H      -42.93700000     -35.04770000     -71.59100000
H      -41.20120000     -34.64280000     -71.34120000
C      -42.43610000     -32.94830000     -71.76470000
H      -41.58260000     -32.31340000     -71.57450000
H      -42.36520000     -33.11030000     -72.78330000
C      -44.94860000     -33.23710000     -74.11400000
H      -45.31880000     -32.73530000     -75.07500000
H      -43.86460000     -33.01180000     -74.03790000
C      -45.63640000     -32.41940000     -73.03160000
C      -46.86020000     -31.87480000     -73.17620000
C      -44.92360000     -31.93270000     -71.85720000
H      -47.49810000     -32.22850000     -73.92840000
C      -45.70550000     -31.09070000     -71.10160000
C      -43.60000000     -32.03620000     -71.34380000
C      -43.39220000     -31.29700000     -70.22360000
S      -47.27020000     -30.98390000     -71.70870000
S      -44.80650000     -30.43070000     -69.69680000
H      -42.50150000     -31.16810000     -69.61670000
