40
Properties=species:S:1:pos:R:3 #=T CELL(abcABC):=T 1.889726e+02=T 90.00000=T Traj:=T positionsangstrom=T Step:=T 0=T Bead:=T pbc="F F F"
C      -46.04990000     -33.96100000     -69.14370000
C      -45.31240000     -35.09600000     -69.52620000
C      -45.77500000     -35.84850000     -70.64200000
C      -46.88040000     -35.43250000     -71.41130000
C      -47.64860000     -34.42320000     -70.88440000
C      -47.21070000     -33.59830000     -69.82830000
H      -45.80700000     -33.27370000     -68.36780000
H      -45.11510000     -36.63870000     -70.97910000
H      -48.60640000     -34.25260000     -71.48990000
H      -47.81090000     -32.70780000     -69.42700000
C      -47.35280000     -36.21230000     -72.60990000
H      -48.44530000     -36.30460000     -72.69440000
H      -46.85370000     -37.14850000     -72.70080000
C      -44.08480000     -35.49410000     -68.70630000
H      -44.21780000     -35.42800000     -67.57570000
H      -43.74080000     -36.54230000     -69.00520000
S      -47.04060000     -35.32780000     -74.27330000
S      -42.50250000     -34.54230000     -69.12970000
C      -45.22260000     -34.84860000     -74.08540000
H      -44.91140000     -35.54880000     -73.33190000
H      -44.68640000     -35.14610000     -75.06380000
C      -42.58950000     -34.38500000     -71.00760000
H      -43.54030000     -34.75530000     -71.33140000
H      -41.82730000     -35.03190000     -71.42330000
C      -42.35430000     -32.93000000     -71.52820000
H      -41.50160000     -32.56250000     -71.10620000
H      -42.19740000     -32.77650000     -72.56250000
C      -44.85420000     -33.37040000     -73.99980000
H      -45.05800000     -32.89350000     -75.00570000
H      -43.71860000     -33.31340000     -73.99700000
C      -45.43850000     -32.43410000     -72.94130000
C      -46.68780000     -31.95880000     -73.12330000
C      -44.80190000     -31.91380000     -71.78270000
H      -47.35720000     -32.11920000     -73.93670000
C      -45.66020000     -31.03680000     -71.10940000
C      -43.53080000     -32.06140000     -71.05250000
C      -43.50610000     -31.26850000     -69.95670000
S      -47.19520000     -30.86220000     -71.83630000
S      -44.93450000     -30.24260000     -69.78980000
H      -42.77350000     -31.22360000     -69.19470000
