40
Properties=species:S:1:pos:R:3 #=T CELL(abcABC):=T 1.889726e+02=T 90.00000=T Traj:=T positionsangstrom=T Step:=T 0=T Bead:=T pbc="F F F"
C      -46.90850000     -33.32830000     -69.22280000
C      -46.31310000     -34.60870000     -69.18000000
C      -46.52990000     -35.41420000     -70.32030000
C      -47.22680000     -34.91190000     -71.47580000
C      -47.69100000     -33.62370000     -71.48230000
C      -47.55170000     -32.83410000     -70.33700000
H      -46.80810000     -32.73630000     -68.34190000
H      -46.10670000     -36.40050000     -70.37340000
H      -48.14020000     -33.11970000     -72.38070000
H      -48.02280000     -31.81640000     -70.32090000
C      -47.56650000     -35.87190000     -72.64290000
H      -48.59560000     -35.79730000     -72.95100000
H      -47.35460000     -36.92160000     -72.34470000
C      -45.53090000     -34.99390000     -67.92100000
H      -45.81030000     -34.29330000     -67.12180000
H      -45.76700000     -35.99130000     -67.51540000
S      -46.54220000     -35.34310000     -74.14510000
S      -43.68430000     -34.82160000     -68.20240000
C      -44.85180000     -35.41220000     -73.44380000
H      -45.05120000     -35.33520000     -72.41350000
H      -44.25310000     -36.28420000     -73.65260000
C      -43.38240000     -35.03460000     -69.96770000
H      -44.25940000     -35.26230000     -70.61030000
H      -42.69400000     -35.88990000     -70.02610000
C      -42.62250000     -33.77530000     -70.57520000
H      -41.77070000     -33.65320000     -69.91300000
H      -42.19570000     -34.03360000     -71.52210000
C      -44.03960000     -34.10660000     -73.80630000
H      -44.05580000     -33.96260000     -74.88360000
H      -42.98230000     -34.08770000     -73.48620000
C      -44.65380000     -32.84490000     -73.17020000
C      -45.36740000     -32.03140000     -73.98940000
C      -44.50840000     -32.29360000     -71.83100000
H      -45.68410000     -32.43850000     -75.00230000
C      -45.14690000     -31.08570000     -71.72010000
C      -43.53680000     -32.56650000     -70.74110000
C      -43.52340000     -31.50190000     -69.86000000
S      -46.00560000     -30.61170000     -73.18090000
S      -44.55870000     -30.15910000     -70.35120000
H      -42.95300000     -31.30010000     -68.96430000
