40
Properties=species:S:1:pos:R:3 #=T CELL(abcABC):=T 1.889726e+02=T 90.00000=T Traj:=T positionsangstrom=T Step:=T 0=T Bead:=T pbc="F F F"
C      -47.35690000     -33.04670000     -69.30180000
C      -46.84450000     -34.33620000     -69.17900000
C      -46.93340000     -35.18660000     -70.29390000
C      -47.26410000     -34.64970000     -71.56020000
C      -47.67820000     -33.32940000     -71.67880000
C      -47.80740000     -32.55590000     -70.56960000
H      -47.54160000     -32.39420000     -68.45030000
H      -46.65390000     -36.23590000     -70.34110000
H      -48.08100000     -32.88220000     -72.62490000
H      -48.47320000     -31.72200000     -70.64030000
C      -47.31530000     -35.56560000     -72.80560000
H      -48.16680000     -35.23700000     -73.43810000
H      -47.46480000     -36.62450000     -72.64130000
C      -46.23820000     -34.75280000     -67.83480000
H      -46.78050000     -34.19620000     -67.04020000
H      -46.26940000     -35.80380000     -67.64620000
S      -45.95730000     -35.51030000     -74.04690000
S      -44.45160000     -34.35730000     -67.65890000
C      -44.35250000     -35.73650000     -73.19840000
H      -44.58830000     -35.89430000     -72.16890000
H      -43.86610000     -36.65580000     -73.58530000
C      -43.75250000     -34.81390000     -69.30860000
H      -44.58450000     -35.09240000     -69.97540000
H      -43.12830000     -35.74220000     -69.15820000
C      -42.91170000     -33.69580000     -69.97270000
H      -42.22090000     -33.20110000     -69.25670000
H      -42.19730000     -34.16620000     -70.60420000
C      -43.36810000     -34.57680000     -73.23720000
H      -42.89140000     -34.59370000     -74.22770000
H      -42.65730000     -34.80450000     -72.52460000
C      -44.11120000     -33.27730000     -73.14110000
C      -44.79250000     -32.64330000     -74.18350000
C      -44.21790000     -32.47560000     -71.93250000
H      -44.85860000     -33.11030000     -75.11300000
C      -44.75210000     -31.20860000     -72.21730000
C      -43.71160000     -32.57300000     -70.55650000
C      -43.99580000     -31.43020000     -69.84510000
S      -45.42940000     -31.07620000     -73.78460000
S      -44.72990000     -30.12530000     -70.82790000
H      -43.77150000     -31.30960000     -68.80140000
