40
Properties=species:S:1:pos:R:3 #=T CELL(abcABC):=T 1.889726e+02=T 90.00000=T Traj:=T positionsangstrom=T Step:=T 0=T Bead:=T pbc="F F F"
C      -47.13920000     -33.00730000     -69.56540000
C      -46.56570000     -34.28620000     -69.30460000
C      -46.88010000     -35.31490000     -70.16920000
C      -47.36730000     -35.10230000     -71.44980000
C      -47.85640000     -33.81560000     -71.69100000
C      -47.79270000     -32.77920000     -70.76410000
H      -46.86370000     -32.12100000     -68.94890000
H      -46.51900000     -36.33110000     -69.89840000
H      -48.45120000     -33.64230000     -72.54360000
H      -48.19290000     -31.85030000     -71.04880000
C      -47.44750000     -36.22090000     -72.45530000
H      -48.33250000     -36.36090000     -73.02910000
H      -47.22710000     -37.20700000     -72.02060000
C      -45.83160000     -34.53670000     -68.06660000
H      -46.27670000     -33.95910000     -67.21220000
H      -45.83450000     -35.65100000     -67.83630000
S      -46.21350000     -35.83860000     -73.94980000
S      -43.97790000     -34.02770000     -68.02360000
C      -44.60650000     -35.82560000     -73.10810000
H      -44.91960000     -35.94240000     -72.03100000
H      -44.03530000     -36.74280000     -73.40840000
C      -43.31420000     -34.48150000     -69.76670000
H      -44.07450000     -34.71590000     -70.48200000
H      -42.81140000     -35.42100000     -69.63330000
C      -42.37930000     -33.45660000     -70.42380000
H      -41.62590000     -33.12260000     -69.66120000
H      -41.77770000     -33.87080000     -71.22380000
C      -43.84450000     -34.53450000     -73.39500000
H      -43.44950000     -34.54060000     -74.43320000
H      -42.98460000     -34.50660000     -72.66620000
C      -44.60310000     -33.22260000     -73.00760000
C      -45.60270000     -32.69960000     -73.78240000
C      -44.23020000     -32.30420000     -71.94840000
H      -46.09160000     -33.11950000     -74.65190000
C      -44.93620000     -31.09030000     -71.99650000
C      -43.25960000     -32.30160000     -70.82590000
C      -43.40410000     -31.17800000     -70.06280000
S      -45.97520000     -31.03370000     -73.33070000
S      -44.58520000     -30.04330000     -70.60230000
H      -42.97270000     -30.94330000     -69.08980000
