40
Properties=species:S:1:pos:R:3 #=T CELL(abcABC):=T 1.889726e+02=T 90.00000=T Traj:=T positionsangstrom=T Step:=T 0=T Bead:=T pbc="F F F"
C      -48.07390000     -31.38560000     -70.07950000
C      -46.88520000     -30.88090000     -69.59900000
C      -46.10590000     -31.72350000     -68.72850000
C      -46.56880000     -32.97900000     -68.34400000
C      -47.80470000     -33.42120000     -68.80710000
C      -48.53110000     -32.63580000     -69.65310000
H      -48.73520000     -30.59380000     -70.49780000
H      -45.14040000     -31.39670000     -68.24190000
H      -48.11830000     -34.42140000     -68.60300000
H      -49.54240000     -32.90750000     -69.94970000
C      -45.73790000     -33.74970000     -67.39240000
H      -46.19030000     -33.64400000     -66.36690000
H      -44.67620000     -33.36680000     -67.27310000
C      -46.26990000     -29.59890000     -70.04830000
H      -46.93890000     -28.78740000     -69.71220000
H      -45.20090000     -29.49120000     -69.75290000
S      -45.68530000     -35.53850000     -67.76180000
S      -46.19330000     -29.37930000     -71.99450000
C      -44.48870000     -35.51110000     -69.14930000
H      -43.62050000     -34.89370000     -68.91940000
H      -44.06220000     -36.58680000     -69.15670000
C      -45.33280000     -30.84990000     -72.63390000
H      -44.30850000     -30.77330000     -72.10330000
H      -45.42040000     -30.60330000     -73.69690000
C      -45.87890000     -32.26650000     -72.47460000
H      -45.83550000     -32.63890000     -71.46230000
H      -46.89730000     -32.20490000     -72.88890000
C      -45.08370000     -35.02780000     -70.44440000
H      -45.47560000     -34.02570000     -70.30620000
H      -45.97810000     -35.59520000     -70.75320000
C      -44.12530000     -35.02990000     -71.62660000
C      -43.19850000     -36.06930000     -71.77820000
C      -44.34870000     -34.32700000     -72.88380000
H      -42.94100000     -36.73890000     -70.97870000
C      -43.66580000     -34.93420000     -73.93250000
C      -45.09480000     -33.21610000     -73.38560000
C      -44.84280000     -32.93690000     -74.69660000
S      -42.61720000     -36.20620000     -73.39690000
S      -44.01740000     -34.33820000     -75.48300000
H      -45.27810000     -32.17910000     -75.31090000
