40
Properties=species:S:1:pos:R:3 #=T CELL(abcABC):=T 1.889726e+02=T 90.00000=T Traj:=T positionsangstrom=T Step:=T 0=T Bead:=T pbc="F F F"
C      -47.03230000     -33.05590000     -69.68840000
C      -46.42140000     -34.24630000     -69.41540000
C      -46.53050000     -35.30550000     -70.33490000
C      -47.37210000     -35.16770000     -71.42490000
C      -47.99790000     -33.94220000     -71.68470000
C      -47.83410000     -32.87940000     -70.79760000
H      -47.05220000     -32.30350000     -68.94550000
H      -46.11460000     -36.28760000     -70.10980000
H      -48.47090000     -33.76590000     -72.65420000
H      -48.43960000     -32.02420000     -70.75970000
C      -47.49270000     -36.28880000     -72.42150000
H      -48.48630000     -36.34270000     -72.93210000
H      -47.17880000     -37.26450000     -72.01570000
C      -45.74630000     -34.49180000     -68.06100000
H      -46.35760000     -34.02070000     -67.29180000
H      -45.77880000     -35.50250000     -67.80550000
S      -46.49710000     -35.93900000     -73.89150000
S      -43.96040000     -33.95430000     -67.98080000
C      -44.78290000     -35.57360000     -73.06380000
H      -44.87570000     -35.37460000     -72.02360000
H      -44.19920000     -36.51030000     -73.24480000
C      -43.14090000     -34.69470000     -69.51350000
H      -43.95530000     -35.11780000     -70.15030000
H      -42.39750000     -35.47660000     -69.21780000
C      -42.44220000     -33.56220000     -70.32650000
H      -41.70430000     -33.02840000     -69.73750000
H      -41.93250000     -34.05730000     -71.14640000
C      -43.86400000     -34.42730000     -73.57940000
H      -43.80610000     -34.44260000     -74.68680000
H      -42.87010000     -34.60760000     -73.26740000
C      -44.43210000     -33.10990000     -73.15540000
C      -45.28480000     -32.42110000     -73.97910000
C      -44.18400000     -32.35980000     -71.96070000
H      -45.58770000     -32.78280000     -75.01200000
C      -44.96410000     -31.19080000     -71.91010000
C      -43.34630000     -32.43400000     -70.75280000
C      -43.33570000     -31.19450000     -70.09300000
S      -46.05760000     -30.99000000     -73.22170000
S      -44.57370000     -29.99330000     -70.65930000
H      -42.72090000     -31.02650000     -69.17110000
