40
Properties=species:S:1:pos:R:3 #=T CELL(abcABC):=T 1.889726e+02=T 90.00000=T Traj:=T positionsangstrom=T Step:=T 0=T Bead:=T pbc="F F F"
C      -47.07980000     -32.97230000     -69.42510000
C      -46.64830000     -34.30020000     -69.26290000
C      -46.76200000     -35.18730000     -70.34030000
C      -47.24170000     -34.73920000     -71.58140000
C      -47.62340000     -33.41210000     -71.75880000
C      -47.59350000     -32.57320000     -70.67280000
H      -46.92240000     -32.24190000     -68.62490000
H      -46.57180000     -36.24310000     -70.14710000
H      -47.95250000     -33.10800000     -72.76250000
H      -47.98770000     -31.57110000     -70.78120000
C      -47.35450000     -35.79710000     -72.63580000
H      -48.35260000     -35.70950000     -73.07820000
H      -47.12150000     -36.81840000     -72.25170000
C      -46.18310000     -34.89540000     -68.01030000
H      -46.73050000     -34.51660000     -67.14700000
H      -46.22510000     -36.00250000     -68.02480000
S      -46.26420000     -35.40600000     -74.03560000
S      -44.45640000     -34.24490000     -67.76810000
C      -44.60540000     -35.72810000     -73.11140000
H      -44.82140000     -35.86920000     -72.01320000
H      -44.08400000     -36.62590000     -73.37750000
C      -43.55360000     -34.75760000     -69.26480000
H      -44.16820000     -35.07980000     -70.12090000
H      -42.91840000     -35.62470000     -69.09260000
C      -42.73290000     -33.63910000     -69.91890000
H      -42.00010000     -33.24420000     -69.16610000
H      -42.23230000     -34.17430000     -70.72170000
C      -43.52090000     -34.62840000     -73.30970000
H      -43.09240000     -34.71910000     -74.32650000
H      -42.65630000     -34.91760000     -72.62640000
C      -44.03710000     -33.22310000     -73.06910000
C      -44.69620000     -32.62580000     -74.14930000
C      -44.08880000     -32.41760000     -71.89550000
H      -44.67760000     -32.99380000     -75.16240000
C      -44.74200000     -31.26240000     -72.16980000
C      -43.55960000     -32.44730000     -70.55330000
C      -43.93380000     -31.36680000     -69.81340000
S      -45.51790000     -31.16340000     -73.73420000
S      -44.94240000     -30.18240000     -70.73210000
H      -43.43430000     -31.09160000     -68.84660000
