40
Properties=species:S:1:pos:R:3 #=T CELL(abcABC):=T 1.889726e+02=T 90.00000=T Traj:=T positionsangstrom=T Step:=T 0=T Bead:=T pbc="F F F"
C      -47.42870000     -32.72640000     -69.57170000
C      -47.15130000     -34.10590000     -69.36970000
C      -47.10280000     -34.96390000     -70.45320000
C      -47.42030000     -34.55430000     -71.69870000
C      -47.78940000     -33.21470000     -71.92230000
C      -47.72940000     -32.28770000     -70.86410000
H      -47.37330000     -32.03710000     -68.67580000
H      -46.80820000     -35.97470000     -70.23970000
H      -48.02340000     -32.89430000     -72.91280000
H      -47.75760000     -31.24970000     -71.05500000
C      -47.60640000     -35.67740000     -72.82100000
H      -48.47740000     -35.52530000     -73.46910000
H      -47.79240000     -36.62080000     -72.29510000
C      -46.77710000     -34.61100000     -67.93220000
H      -47.29870000     -33.91580000     -67.26420000
H      -47.07370000     -35.64590000     -67.80090000
S      -46.17960000     -35.77920000     -73.98710000
S      -44.95000000     -34.30200000     -67.76270000
C      -44.65260000     -35.86180000     -72.92130000
H      -44.98340000     -35.75480000     -71.88340000
H      -44.17300000     -36.81520000     -72.97680000
C      -44.26130000     -34.89580000     -69.28570000
H      -44.92260000     -35.02690000     -70.11160000
H      -43.76580000     -35.80370000     -69.14770000
C      -43.05770000     -34.07880000     -70.02510000
H      -42.24670000     -34.11690000     -69.32860000
H      -42.74350000     -34.73950000     -70.85340000
C      -43.63030000     -34.71780000     -73.32900000
H      -43.46390000     -34.93590000     -74.37940000
H      -42.64600000     -34.89330000     -72.83850000
C      -44.17080000     -33.29850000     -73.02430000
C      -44.88060000     -32.59020000     -74.00080000
C      -43.90180000     -32.48170000     -71.87330000
H      -44.96180000     -33.03660000     -74.97970000
C      -44.14150000     -31.11090000     -72.11390000
C      -43.38930000     -32.72970000     -70.57020000
C      -43.32930000     -31.61560000     -69.81270000
S      -45.10640000     -30.93710000     -73.55870000
S      -43.84930000     -30.15130000     -70.69380000
H      -42.93180000     -31.43680000     -68.87160000
