40
Properties=species:S:1:pos:R:3 #=T CELL(abcABC):=T 1.889726e+02=T 90.00000=T Traj:=T positionsangstrom=T Step:=T 0=T Bead:=T pbc="F F F"
C      -47.44380000     -32.75660000     -69.44250000
C      -47.26890000     -34.13960000     -69.17340000
C      -47.41750000     -35.02000000     -70.25370000
C      -47.60840000     -34.66050000     -71.58840000
C      -47.61480000     -33.27260000     -71.88860000
C      -47.64290000     -32.30910000     -70.82670000
H      -47.32190000     -31.98880000     -68.67160000
H      -47.41810000     -36.05750000     -70.01010000
H      -47.72450000     -32.90990000     -72.90360000
H      -47.81520000     -31.26480000     -71.07160000
C      -47.63180000     -35.62940000     -72.74630000
H      -48.45390000     -35.35210000     -73.44600000
H      -47.74300000     -36.62690000     -72.39580000
C      -46.64660000     -34.50440000     -67.91170000
H      -47.05400000     -33.96820000     -67.08890000
H      -46.71500000     -35.57680000     -67.64640000
S      -46.13210000     -35.74570000     -73.87810000
S      -44.80530000     -34.19290000     -67.75370000
C      -44.52900000     -35.74460000     -72.88440000
H      -44.90340000     -35.65300000     -71.78180000
H      -44.01090000     -36.70720000     -73.03600000
C      -44.17450000     -34.89630000     -69.35160000
H      -45.04690000     -34.92860000     -70.06730000
H      -43.98570000     -35.99050000     -69.11500000
C      -42.94910000     -34.00440000     -69.89720000
H      -42.16260000     -33.60920000     -69.23140000
H      -42.42240000     -34.67020000     -70.61530000
C      -43.50640000     -34.69590000     -73.39240000
H      -43.27770000     -34.83600000     -74.47760000
H      -42.60310000     -34.83990000     -72.83640000
C      -44.11330000     -33.33980000     -73.15330000
C      -44.70250000     -32.57920000     -74.21940000
C      -43.99560000     -32.60970000     -71.93600000
H      -45.04410000     -32.97500000     -75.16260000
C      -44.38150000     -31.24770000     -72.15230000
C      -43.43480000     -32.78760000     -70.59310000
C      -43.40220000     -31.61490000     -69.87270000
S      -45.07900000     -30.93690000     -73.73320000
S      -44.08110000     -30.21700000     -70.77030000
H      -42.84320000     -31.45850000     -68.93560000
