40
Properties=species:S:1:pos:R:3 #=T CELL(abcABC):=T 1.889726e+02=T 90.00000=T Traj:=T positionsangstrom=T Step:=T 0=T Bead:=T pbc="F F F"
C      -47.31000000     -32.97910000     -69.34500000
C      -46.92890000     -34.34820000     -69.18340000
C      -47.02550000     -35.16060000     -70.31310000
C      -47.54240000     -34.69080000     -71.55910000
C      -47.76330000     -33.32660000     -71.75810000
C      -47.66180000     -32.48880000     -70.59950000
H      -47.25680000     -32.37280000     -68.43150000
H      -46.76370000     -36.23070000     -70.21270000
H      -48.10020000     -32.94930000     -72.72440000
H      -47.98590000     -31.42710000     -70.66490000
C      -47.65900000     -35.59480000     -72.81390000
H      -48.25020000     -35.12020000     -73.61000000
H      -48.05100000     -36.58710000     -72.47880000
C      -46.10630000     -34.71380000     -67.84500000
H      -46.53000000     -34.24210000     -66.99150000
H      -46.11840000     -35.80180000     -67.66050000
S      -46.09860000     -35.85330000     -73.81180000
S      -44.35870000     -34.12690000     -67.73120000
C      -44.57520000     -35.63060000     -72.67130000
H      -44.92240000     -35.16930000     -71.70440000
H      -44.12880000     -36.53050000     -72.41740000
C      -43.61450000     -34.81220000     -69.24240000
H      -44.53690000     -35.24010000     -69.75720000
H      -42.92900000     -35.65750000     -69.03590000
C      -42.88870000     -33.76940000     -70.10100000
H      -42.29350000     -33.20860000     -69.39710000
H      -42.33700000     -34.25020000     -70.93530000
C      -43.54650000     -34.67100000     -73.34480000
H      -43.45280000     -34.91360000     -74.37780000
H      -42.55000000     -34.81960000     -72.86360000
C      -43.94700000     -33.19510000     -73.32780000
C      -44.47570000     -32.43630000     -74.34780000
C      -43.96350000     -32.41770000     -72.08930000
H      -44.45710000     -32.75380000     -75.37730000
C      -44.61380000     -31.15730000     -72.21650000
C      -43.70350000     -32.64000000     -70.64670000
C      -44.17650000     -31.59790000     -69.89160000
S      -45.05220000     -30.87260000     -73.90140000
S      -45.00690000     -30.32390000     -70.71770000
H      -44.00500000     -31.63050000     -68.84810000
