40
Properties=species:S:1:pos:R:3 #=T CELL(abcABC):=T 1.889726e+02=T 90.00000=T Traj:=T positionsangstrom=T Step:=T 0=T Bead:=T pbc="F F F"
C      -47.05490000     -32.66500000     -70.16830000
C      -46.95620000     -33.98490000     -69.75810000
C      -47.37810000     -35.03590000     -70.70960000
C      -47.85740000     -34.65650000     -71.97050000
C      -48.09360000     -33.29200000     -72.21070000
C      -47.64200000     -32.32770000     -71.37630000
H      -46.60140000     -31.96290000     -69.54280000
H      -47.30570000     -36.07610000     -70.46600000
H      -48.45390000     -32.99320000     -73.19880000
H      -47.77910000     -31.23750000     -71.55180000
C      -47.95160000     -35.68000000     -73.09100000
H      -48.76820000     -35.45770000     -73.78240000
H      -48.14600000     -36.66950000     -72.68160000
C      -46.60080000     -34.41690000     -68.33790000
H      -47.12200000     -33.91640000     -67.55680000
H      -46.69860000     -35.53120000     -68.31600000
S      -46.49420000     -35.49790000     -74.12210000
S      -44.74150000     -34.24840000     -67.95140000
C      -45.11800000     -35.76330000     -72.87530000
H      -45.48960000     -35.78830000     -71.83270000
H      -44.72890000     -36.78970000     -73.13650000
C      -43.81170000     -35.04870000     -69.41950000
H      -44.57300000     -35.09550000     -70.21570000
H      -43.42290000     -36.06850000     -69.23450000
C      -42.67740000     -34.10960000     -69.88130000
H      -41.94990000     -34.01580000     -69.05140000
H      -42.18560000     -34.57360000     -70.75170000
C      -43.92910000     -34.86000000     -72.96590000
H      -43.47160000     -35.10870000     -73.96410000
H      -43.20610000     -35.32770000     -72.31180000
C      -44.19500000     -33.37750000     -72.69750000
C      -44.68790000     -32.61130000     -73.69600000
C      -43.81880000     -32.55670000     -71.54930000
H      -45.20920000     -33.01690000     -74.58180000
C      -44.15050000     -31.22750000     -71.73130000
C      -43.22010000     -32.73960000     -70.27250000
C      -43.18300000     -31.61930000     -69.54920000
S      -44.91800000     -30.97580000     -73.30520000
S      -43.95600000     -30.25510000     -70.31900000
H      -42.68360000     -31.54630000     -68.59790000
