40
Properties=species:S:1:pos:R:3 #=T CELL(abcABC):=T 1.889726e+02=T 90.00000=T Traj:=T positionsangstrom=T Step:=T 0=T Bead:=T pbc="F F F"
C      -44.83670000     -34.05740000     -69.02370000
C      -43.90620000     -33.16610000     -69.47250000
C      -43.03000000     -33.52290000     -70.54620000
C      -43.11180000     -34.80720000     -71.14640000
C      -43.97810000     -35.77720000     -70.58320000
C      -44.97580000     -35.36190000     -69.63500000
H      -45.63950000     -33.79320000     -68.31000000
H      -42.31000000     -32.80660000     -70.93600000
H      -43.87240000     -36.79700000     -70.97740000
H      -45.70490000     -36.11910000     -69.25330000
C      -42.16070000     -35.13040000     -72.22750000
H      -41.32110000     -35.81420000     -71.99890000
H      -41.68360000     -34.13680000     -72.47560000
C      -43.60270000     -31.79190000     -68.83560000
H      -42.84850000     -31.95780000     -68.00760000
H      -42.90490000     -31.25750000     -69.54010000
S      -43.16950000     -35.78180000     -73.73090000
S      -44.97810000     -30.72180000     -68.41590000
C      -43.59040000     -34.15880000     -74.43850000
H      -42.65310000     -33.69180000     -74.97580000
H      -44.07650000     -34.44740000     -75.34930000
C      -45.33910000     -29.68160000     -69.87510000
H      -44.51340000     -28.96710000     -69.91610000
H      -46.21230000     -29.10310000     -69.55300000
C      -45.48220000     -30.53510000     -71.25210000
H      -45.63350000     -29.88450000     -72.10910000
H      -44.42730000     -30.85050000     -71.47060000
C      -44.38130000     -33.11530000     -73.64470000
H      -44.60000000     -32.32570000     -74.37890000
H      -43.72120000     -32.69860000     -72.83000000
C      -45.68680000     -33.58450000     -73.08380000
C      -46.34980000     -34.62460000     -73.62940000
C      -46.43950000     -32.85950000     -72.04690000
H      -46.03220000     -35.32290000     -74.40120000
C      -47.56540000     -33.58940000     -71.77820000
C      -46.43290000     -31.68440000     -71.12230000
C      -47.50340000     -31.62420000     -70.29740000
S      -47.81030000     -35.00300000     -72.80180000
S      -48.57360000     -33.01010000     -70.44340000
H      -47.56930000     -30.82300000     -69.51130000
