40
Properties=species:S:1:pos:R:3 #=T CELL(abcABC):=T 1.889726e+02=T 90.00000=T Traj:=T positionsangstrom=T Step:=T 0=T Bead:=T pbc="F F F"
C      -44.23850000     -33.79000000     -68.80460000
C      -43.24670000     -32.97060000     -69.39360000
C      -42.71320000     -33.27780000     -70.62550000
C      -43.06210000     -34.56120000     -71.23380000
C      -44.12460000     -35.28000000     -70.68470000
C      -44.58280000     -35.01080000     -69.40170000
H      -44.65990000     -33.53970000     -67.80390000
H      -41.95310000     -32.60910000     -71.06240000
H      -44.52270000     -36.17090000     -71.12750000
H      -45.43710000     -35.61050000     -69.01420000
C      -42.31870000     -35.01810000     -72.52350000
H      -41.68520000     -35.95910000     -72.30790000
H      -41.63630000     -34.16350000     -72.91530000
C      -43.06600000     -31.58650000     -68.81000000
H      -42.59150000     -31.55060000     -67.80180000
H      -42.48000000     -30.94410000     -69.48240000
S      -43.49720000     -35.65550000     -73.82430000
S      -44.70740000     -30.76820000     -68.64910000
C      -44.21220000     -34.24590000     -74.75230000
H      -43.38200000     -33.70620000     -75.30930000
H      -44.81160000     -34.86630000     -75.44100000
C      -44.72880000     -30.08010000     -70.33470000
H      -43.69240000     -29.82270000     -70.66530000
H      -45.31870000     -29.18160000     -70.32660000
C      -45.11500000     -31.11480000     -71.43560000
H      -45.29130000     -30.68580000     -72.40870000
H      -44.24320000     -31.78020000     -71.51800000
C      -44.97870000     -33.24890000     -73.97980000
H      -45.31730000     -32.41180000     -74.54000000
H      -44.25030000     -32.83940000     -73.26240000
C      -46.17660000     -33.74370000     -73.19090000
C      -46.99660000     -34.72560000     -73.63420000
C      -46.57050000     -33.14750000     -71.90390000
H      -46.72890000     -35.39480000     -74.45420000
C      -47.66320000     -33.81720000     -71.39160000
C      -46.31150000     -31.95400000     -71.13070000
C      -47.22710000     -31.68300000     -70.11130000
S      -48.27560000     -35.00650000     -72.46360000
S      -48.45750000     -32.97130000     -70.10580000
H      -47.19240000     -31.04240000     -69.27540000
