40
Properties=species:S:1:pos:R:3 #=T CELL(abcABC):=T 1.889726e+02=T 90.00000=T Traj:=T positionsangstrom=T Step:=T 0=T Bead:=T pbc="F F F"
C      -47.39000000     -32.50060000     -69.83290000
C      -47.25350000     -33.88260000     -69.78580000
C      -47.32100000     -34.62550000     -70.97250000
C      -47.71360000     -34.00190000     -72.19490000
C      -47.84420000     -32.61840000     -72.22960000
C      -47.69400000     -31.92180000     -71.09260000
H      -47.24740000     -31.93390000     -68.89110000
H      -47.32610000     -35.67010000     -70.89890000
H      -48.11080000     -32.17160000     -73.21640000
H      -47.76810000     -30.83380000     -71.20200000
C      -47.83960000     -34.83490000     -73.43910000
H      -48.30610000     -34.27370000     -74.24550000
H      -48.42900000     -35.71150000     -73.25600000
C      -46.95770000     -34.58490000     -68.46420000
H      -47.40870000     -33.98930000     -67.67130000
H      -47.28710000     -35.62490000     -68.44680000
S      -46.37880000     -35.56280000     -74.43140000
S      -45.04640000     -34.64480000     -68.01150000
C      -44.88470000     -35.78050000     -73.34360000
H      -45.27880000     -36.03390000     -72.25110000
H      -44.46640000     -36.66400000     -73.79380000
C      -44.21970000     -35.35070000     -69.59300000
H      -44.89380000     -35.42950000     -70.48260000
H      -44.01180000     -36.37600000     -69.28020000
C      -42.91600000     -34.69630000     -70.02590000
H      -42.26910000     -34.76930000     -69.16650000
H      -42.54320000     -35.27670000     -70.83910000
C      -43.78550000     -34.62110000     -73.42710000
H      -43.70970000     -34.37490000     -74.54980000
H      -42.84430000     -34.97240000     -72.97840000
C      -44.17960000     -33.25730000     -72.79240000
C      -44.82300000     -32.33860000     -73.56330000
C      -43.82540000     -32.72030000     -71.49670000
H      -45.11610000     -32.30380000     -74.57800000
C      -44.01300000     -31.30790000     -71.43730000
C      -43.10360000     -33.20170000     -70.34930000
C      -43.02750000     -32.26380000     -69.34710000
S      -44.93950000     -30.73380000     -72.81770000
S      -43.51400000     -30.65700000     -69.90760000
H      -42.58170000     -32.44740000     -68.44920000
