40
Properties=species:S:1:pos:R:3 #=T CELL(abcABC):=T 1.889726e+02=T 90.00000=T Traj:=T positionsangstrom=T Step:=T 0=T Bead:=T pbc="F F F"
C      -46.95560000     -32.75710000     -69.95930000
C      -47.22660000     -34.04200000     -69.87800000
C      -47.63040000     -34.77170000     -71.04440000
C      -47.79420000     -34.08170000     -72.23390000
C      -47.70890000     -32.69440000     -72.28390000
C      -47.25230000     -32.05500000     -71.12320000
H      -46.48490000     -32.25610000     -69.13770000
H      -47.70670000     -35.90010000     -70.95530000
H      -47.91000000     -32.07870000     -73.18080000
H      -47.20650000     -30.96280000     -71.19610000
C      -47.95240000     -34.82840000     -73.56450000
H      -48.86010000     -34.38790000     -73.96630000
H      -48.00400000     -35.89880000     -73.57760000
C      -47.08880000     -34.83420000     -68.56050000
H      -47.47290000     -34.31700000     -67.66290000
H      -47.62430000     -35.78060000     -68.59190000
S      -46.48310000     -34.33630000     -74.68970000
S      -45.32380000     -34.99560000     -68.22270000
C      -45.06960000     -35.16340000     -73.76070000
H      -45.50380000     -35.31640000     -72.79600000
H      -44.88810000     -36.28700000     -74.12290000
C      -44.47360000     -35.85760000     -69.67960000
H      -45.02450000     -35.89980000     -70.60900000
H      -44.26480000     -36.86850000     -69.27290000
C      -43.19540000     -35.06130000     -69.96680000
H      -42.42870000     -35.16860000     -69.22700000
H      -42.80950000     -35.42050000     -70.90730000
C      -43.67770000     -34.44500000     -73.62880000
H      -43.35820000     -34.18710000     -74.66990000
H      -42.91580000     -35.19690000     -73.21520000
C      -43.83320000     -33.12660000     -72.84970000
C      -44.25680000     -32.03930000     -73.56720000
C      -43.65480000     -32.84910000     -71.38600000
H      -44.61100000     -31.98140000     -74.53570000
C      -43.94120000     -31.45750000     -71.16020000
C      -43.46410000     -33.50950000     -70.08400000
C      -43.34660000     -32.65160000     -69.01050000
S      -44.38150000     -30.56890000     -72.62060000
S      -43.76570000     -30.99580000     -69.45930000
H      -43.33080000     -32.81830000     -67.94680000
