40
Properties=species:S:1:pos:R:3 #=T CELL(abcABC):=T 1.889726e+02=T 90.00000=T Traj:=T positionsangstrom=T Step:=T 0=T Bead:=T pbc="F F F"
C      -45.09180000     -36.72890000     -69.65880000
C      -45.75200000     -35.78700000     -68.89330000
C      -46.93330000     -35.27240000     -69.39490000
C      -47.47860000     -35.73740000     -70.60820000
C      -46.77890000     -36.72770000     -71.31730000
C      -45.65120000     -37.23300000     -70.83450000
H      -44.22780000     -37.18840000     -69.22340000
H      -47.43550000     -34.42830000     -68.81840000
H      -47.18520000     -37.10990000     -72.24540000
H      -45.12100000     -38.07800000     -71.30750000
C      -48.89210000     -35.24350000     -71.05420000
H      -49.70020000     -35.67120000     -70.43430000
H      -49.14200000     -35.64030000     -72.06210000
C      -45.02580000     -35.16360000     -67.71250000
H      -45.40880000     -35.56830000     -66.76020000
H      -43.99110000     -35.42520000     -67.71470000
S      -48.88640000     -33.40780000     -71.15690000
S      -45.21960000     -33.26550000     -67.69180000
C      -47.46910000     -33.18290000     -72.29680000
H      -46.81380000     -34.07730000     -72.20530000
H      -47.69080000     -33.07390000     -73.40650000
C      -44.32340000     -32.49760000     -69.14720000
H      -43.31610000     -32.11710000     -68.82060000
H      -44.87650000     -31.61890000     -69.40310000
C      -44.16140000     -33.45820000     -70.34870000
H      -43.62070000     -34.33670000     -69.92750000
H      -45.14430000     -33.87220000     -70.60910000
C      -46.72490000     -31.93780000     -71.86560000
H      -46.34610000     -32.09100000     -70.82200000
H      -47.35990000     -31.06470000     -71.82020000
C      -45.51160000     -31.60340000     -72.76780000
C      -45.67210000     -30.86830000     -73.92750000
C      -44.18580000     -32.12400000     -72.64000000
H      -46.61190000     -30.41060000     -74.29770000
C      -43.32320000     -31.62750000     -73.64020000
C      -43.42310000     -32.82480000     -71.57200000
C      -42.12250000     -33.02710000     -71.95160000
S      -44.05610000     -30.58160000     -74.75530000
S      -41.63980000     -32.00930000     -73.37890000
H      -41.27470000     -33.45590000     -71.34880000
