40
Properties=species:S:1:pos:R:3 #=T CELL(abcABC):=T 1.889726e+02=T 90.00000=T Traj:=T positionsangstrom=T Step:=T 0=T Bead:=T pbc="F F F"
C      -43.82640000     -33.81790000     -68.89960000
C      -43.07550000     -32.96140000     -69.69240000
C      -42.59890000     -33.47390000     -70.90930000
C      -42.93750000     -34.73780000     -71.38410000
C      -43.68820000     -35.58330000     -70.52430000
C      -44.07210000     -35.15030000     -69.27700000
H      -44.23090000     -33.49500000     -67.90740000
H      -41.96540000     -32.88140000     -71.60240000
H      -43.76900000     -36.68140000     -70.88230000
H      -44.66550000     -35.80440000     -68.60820000
C      -42.45890000     -35.36930000     -72.69710000
H      -41.74950000     -36.18740000     -72.61890000
H      -41.85030000     -34.60600000     -73.29500000
C      -42.89630000     -31.48710000     -69.30320000
H      -42.16250000     -31.51740000     -68.52270000
H      -42.52180000     -30.90610000     -70.11920000
S      -43.76270000     -35.86350000     -73.89550000
S      -44.50640000     -30.86710000     -68.70600000
C      -44.39800000     -34.26030000     -74.68820000
H      -43.59140000     -33.75150000     -75.17060000
H      -45.11190000     -34.54580000     -75.41770000
C      -44.96690000     -29.94360000     -70.23490000
H      -44.12560000     -29.20630000     -70.42860000
H      -45.83360000     -29.36270000     -70.07430000
C      -45.27930000     -30.91600000     -71.39270000
H      -45.36470000     -30.35640000     -72.34600000
H      -44.39530000     -31.56720000     -71.55460000
C      -44.90610000     -33.23870000     -73.67190000
H      -45.06810000     -32.23660000     -74.10030000
H      -44.09430000     -33.14040000     -72.91400000
C      -46.17810000     -33.65380000     -73.01880000
C      -46.77640000     -34.90310000     -73.17850000
C      -46.81840000     -32.92840000     -71.94580000
H      -46.34520000     -35.63680000     -73.76910000
C      -47.94580000     -33.49830000     -71.47640000
C      -46.42560000     -31.82870000     -71.08650000
C      -47.36740000     -31.51810000     -70.13760000
S      -48.34270000     -34.99520000     -72.31190000
S      -48.63050000     -32.65910000     -70.06250000
H      -47.20360000     -30.75270000     -69.41680000
