40
Properties=species:S:1:pos:R:3 #=T CELL(abcABC):=T 1.889726e+02=T 90.00000=T Traj:=T positionsangstrom=T Step:=T 0=T Bead:=T pbc="F F F"
C      -44.67600000     -33.94040000     -69.14000000
C      -43.66790000     -33.13280000     -69.58530000
C      -42.92340000     -33.44870000     -70.79500000
C      -43.19280000     -34.60700000     -71.49630000
C      -44.30510000     -35.41030000     -71.05500000
C      -45.00660000     -35.06830000     -69.90010000
H      -45.19900000     -33.61910000     -68.27700000
H      -42.09120000     -32.90520000     -71.11290000
H      -44.61110000     -36.28960000     -71.54460000
H      -45.97120000     -35.51120000     -69.78250000
C      -42.45580000     -35.07580000     -72.73550000
H      -41.90930000     -36.04510000     -72.52220000
H      -41.83630000     -34.34100000     -73.14680000
C      -43.23040000     -31.94830000     -68.68350000
H      -43.13680000     -32.33370000     -67.65090000
H      -42.25080000     -31.59500000     -69.01280000
S      -43.57140000     -35.64000000     -74.13290000
S      -44.46250000     -30.67110000     -68.43310000
C      -44.14750000     -34.06270000     -74.79680000
H      -43.33650000     -33.59560000     -75.30840000
H      -44.81550000     -34.32250000     -75.68220000
C      -44.82940000     -29.91390000     -70.05140000
H      -43.95030000     -29.36950000     -70.38660000
H      -45.63580000     -29.21430000     -69.94160000
C      -45.02590000     -30.83460000     -71.21360000
H      -45.34830000     -30.22430000     -72.09020000
H      -44.08800000     -31.31440000     -71.51170000
C      -44.82770000     -33.10010000     -73.84800000
H      -45.21070000     -32.15630000     -74.31080000
H      -44.01870000     -32.69190000     -73.21910000
C      -46.02260000     -33.63690000     -73.00410000
C      -46.64580000     -34.81190000     -73.35620000
C      -46.62680000     -32.94280000     -71.89310000
H      -46.40560000     -35.42450000     -74.17120000
C      -47.65310000     -33.72800000     -71.38090000
C      -46.22260000     -31.80570000     -71.01970000
C      -47.14710000     -31.66470000     -70.01240000
S      -48.06400000     -35.15030000     -72.33870000
S      -48.30670000     -33.00000000     -69.89670000
H      -47.16510000     -30.87730000     -69.28410000
