40
Properties=species:S:1:pos:R:3 #=T CELL(abcABC):=T 1.889726e+02=T 90.00000=T Traj:=T positionsangstrom=T Step:=T 0=T Bead:=T pbc="F F F"
C      -46.88880000     -33.05760000     -69.46000000
C      -47.67230000     -33.87890000     -70.22240000
C      -48.10760000     -33.45040000     -71.51200000
C      -47.79810000     -32.21520000     -72.00340000
C      -46.93440000     -31.41920000     -71.22700000
C      -46.54990000     -31.78280000     -69.95350000
H      -46.65630000     -33.38640000     -68.40670000
H      -48.68520000     -34.14810000     -72.06920000
H      -46.55310000     -30.51340000     -71.65460000
H      -45.92190000     -31.05370000     -69.38310000
C      -47.99240000     -31.79510000     -73.47750000
H      -48.42590000     -30.78680000     -73.47580000
H      -48.60570000     -32.56360000     -73.96540000
C      -47.91180000     -35.32220000     -69.86120000
H      -48.06620000     -35.35540000     -68.78730000
H      -48.77970000     -35.74290000     -70.40930000
S      -46.50390000     -31.59650000     -74.50010000
S      -46.45210000     -36.43450000     -70.06000000
C      -45.44330000     -33.03150000     -74.24680000
H      -45.93770000     -33.69410000     -73.43810000
H      -45.39470000     -33.54870000     -75.20200000
C      -45.99480000     -36.06740000     -71.82310000
H      -46.36890000     -35.13320000     -72.15050000
H      -46.36950000     -36.92510000     -72.34360000
C      -44.40830000     -35.92300000     -72.06230000
H      -43.77610000     -36.77470000     -71.93560000
H      -44.33880000     -35.71330000     -73.16270000
C      -44.02560000     -32.70210000     -73.77870000
H      -43.52820000     -31.87500000     -74.36510000
H      -43.42500000     -33.57670000     -74.14630000
C      -43.76010000     -32.45650000     -72.34250000
C      -43.61940000     -31.17070000     -71.81380000
C      -43.57900000     -33.43980000     -71.32840000
H      -43.47800000     -30.31060000     -72.51280000
C      -43.10440000     -32.88210000     -70.15070000
C      -43.75190000     -34.87450000     -71.18860000
C      -43.42420000     -35.39240000     -69.93360000
S      -42.99520000     -31.20530000     -70.17420000
S      -42.84960000     -34.08490000     -68.90830000
H      -43.66360000     -36.40910000     -69.59510000
