40
Properties=species:S:1:pos:R:3 #=T CELL(abcABC):=T 1.889726e+02=T 90.00000=T Traj:=T positionsangstrom=T Step:=T 0=T Bead:=T pbc="F F F"
C      -46.71960000     -29.26300000     -71.13000000
C      -46.52480000     -30.68220000     -71.00460000
C      -45.87450000     -31.33810000     -72.07340000
C      -45.25860000     -30.68940000     -73.11430000
C      -45.40950000     -29.26970000     -73.18450000
C      -46.23240000     -28.61120000     -72.24040000
H      -47.33910000     -28.79430000     -70.37430000
H      -45.86290000     -32.41960000     -71.94340000
H      -45.02470000     -28.80450000     -74.10240000
H      -46.44560000     -27.57540000     -72.36240000
C      -44.33550000     -31.37570000     -74.06110000
H      -43.33560000     -30.96810000     -74.14130000
H      -44.68260000     -31.36710000     -75.09080000
C      -47.19300000     -31.44840000     -69.95770000
H      -48.04570000     -30.92490000     -69.46210000
H      -47.53470000     -32.42660000     -70.19710000
S      -43.97540000     -33.17990000     -73.76180000
S      -45.99420000     -31.66220000     -68.46790000
C      -42.85350000     -33.12200000     -72.31700000
H      -41.86460000     -32.77020000     -72.53110000
H      -43.35220000     -32.52500000     -71.53270000
C      -44.46590000     -32.57220000     -69.06680000
H      -43.61310000     -32.00100000     -68.64510000
H      -44.41820000     -32.36980000     -70.16880000
C      -44.35380000     -34.04540000     -68.73490000
H      -43.31500000     -34.24050000     -68.94190000
H      -44.51430000     -34.18900000     -67.68830000
C      -42.60780000     -34.42500000     -71.72240000
H      -42.16340000     -34.27660000     -70.72320000
H      -41.81780000     -34.96450000     -72.22540000
C      -43.83270000     -35.31410000     -71.66310000
C      -44.03930000     -36.11220000     -72.73060000
C      -44.98930000     -35.36650000     -70.84320000
H      -43.32190000     -36.28120000     -73.52890000
C      -45.98560000     -36.23130000     -71.24750000
C      -45.22230000     -34.86120000     -69.49210000
C      -46.40430000     -35.29540000     -68.96220000
S      -45.60580000     -36.96310000     -72.83450000
S      -47.23420000     -36.38270000     -70.11910000
H      -47.02400000     -34.93090000     -68.16500000
