40
Properties=species:S:1:pos:R:3 #=T CELL(abcABC):=T 1.889726e+02=T 90.00000=T Traj:=T positionsangstrom=T Step:=T 0=T Bead:=T pbc="F F F"
C      -46.83430000     -29.54830000     -71.09580000
C      -46.58860000     -30.89250000     -71.10790000
C      -45.67750000     -31.40500000     -72.02190000
C      -45.01810000     -30.62400000     -73.01010000
C      -45.29530000     -29.27090000     -73.04680000
C      -46.21390000     -28.73460000     -72.10360000
H      -47.53420000     -29.11840000     -70.35920000
H      -45.42160000     -32.48870000     -71.86530000
H      -44.72230000     -28.65260000     -73.70910000
H      -46.54930000     -27.69890000     -72.20780000
C      -44.05600000     -31.17080000     -73.97040000
H      -43.20590000     -30.43870000     -73.94720000
H      -44.39800000     -31.11620000     -75.03910000
C      -47.08420000     -31.76420000     -69.96370000
H      -48.08900000     -31.47850000     -69.73110000
H      -47.07740000     -32.80710000     -70.30910000
S      -43.46360000     -32.88980000     -73.80820000
S      -46.11000000     -31.53730000     -68.45670000
C      -42.65330000     -32.90990000     -72.09060000
H      -41.56140000     -32.65010000     -72.15330000
H      -42.99130000     -32.02130000     -71.58810000
C      -44.55710000     -32.55590000     -68.75120000
H      -43.98140000     -32.17170000     -67.91220000
H      -44.03990000     -32.29010000     -69.66320000
C      -44.88470000     -34.08380000     -68.54160000
H      -43.92950000     -34.59240000     -68.47930000
H      -45.40800000     -34.19800000     -67.56640000
C      -42.71580000     -34.31380000     -71.36690000
H      -42.62100000     -34.26870000     -70.28590000
H      -41.89430000     -34.90660000     -71.79120000
C      -43.96520000     -35.18450000     -71.67140000
C      -44.07880000     -35.84470000     -72.87800000
C      -45.12260000     -35.38400000     -70.79190000
H      -43.28420000     -35.90510000     -73.62280000
C      -46.01750000     -36.30130000     -71.41580000
C      -45.64220000     -34.87470000     -69.55910000
C      -46.83970000     -35.48950000     -69.21000000
S      -45.47610000     -36.97110000     -72.95320000
S      -47.39700000     -36.65120000     -70.42720000
H      -47.28000000     -35.51440000     -68.20410000
