40
Properties=species:S:1:pos:R:3 #=T CELL(abcABC):=T 1.889726e+02=T 90.00000=T Traj:=T positionsangstrom=T Step:=T 0=T Bead:=T pbc="F F F"
C      -46.52990000     -29.33050000     -70.97280000
C      -46.57200000     -30.72210000     -70.95620000
C      -45.95080000     -31.45710000     -71.97690000
C      -45.24640000     -30.78730000     -72.97660000
C      -45.16880000     -29.39740000     -72.96510000
C      -45.73660000     -28.62700000     -71.96720000
H      -46.98390000     -28.71120000     -70.19150000
H      -46.04380000     -32.55550000     -72.10270000
H      -44.56080000     -28.89560000     -73.73210000
H      -45.59870000     -27.54030000     -71.99920000
C      -44.58180000     -31.45370000     -74.20910000
H      -43.68410000     -30.94560000     -74.43110000
H      -45.30080000     -31.32530000     -75.01860000
C      -47.24970000     -31.48190000     -69.85500000
H      -48.11470000     -31.02370000     -69.45530000
H      -47.47320000     -32.54220000     -70.21030000
S      -44.32890000     -33.30540000     -74.05060000
S      -46.13550000     -31.68030000     -68.39920000
C      -42.87830000     -33.31710000     -72.77360000
H      -42.07400000     -32.81770000     -73.36600000
H      -43.20040000     -32.68670000     -71.97120000
C      -44.48840000     -32.10390000     -69.15130000
H      -43.74290000     -31.43560000     -68.57770000
H      -44.46920000     -31.83510000     -70.18510000
C      -44.08450000     -33.56980000     -68.99440000
H      -43.06820000     -33.54670000     -69.27390000
H      -44.08260000     -33.71640000     -67.92060000
C      -42.49040000     -34.74020000     -72.22650000
H      -41.86690000     -34.78290000     -71.30010000
H      -42.00570000     -35.32410000     -73.03700000
C      -43.79690000     -35.50760000     -71.96260000
C      -44.23700000     -36.49220000     -72.83120000
C      -44.79440000     -35.32300000     -70.83460000
H      -43.71130000     -36.77340000     -73.77070000
C      -45.87570000     -36.16460000     -71.03980000
C      -45.01740000     -34.55370000     -69.67270000
C      -46.17240000     -34.87590000     -68.98620000
S      -45.81740000     -37.18280000     -72.48930000
S      -47.10780000     -36.08780000     -69.85770000
H      -46.29850000     -34.60900000     -67.97250000
