40
Properties=species:S:1:pos:R:3 #=T CELL(abcABC):=T 1.889726e+02=T 90.00000=T Traj:=T positionsangstrom=T Step:=T 0=T Bead:=T pbc="F F F"
C      -43.18610000     -34.64050000     -69.24390000
C      -42.75480000     -33.42090000     -69.84920000
C      -42.62830000     -33.35730000     -71.28720000
C      -43.07880000     -34.44870000     -72.10000000
C      -43.49270000     -35.64240000     -71.45120000
C      -43.67770000     -35.65640000     -70.06660000
H      -43.24880000     -34.71800000     -68.12710000
H      -42.22930000     -32.31990000     -71.72880000
H      -43.73890000     -36.50920000     -72.04850000
H      -44.04390000     -36.54510000     -69.67510000
C      -42.77560000     -34.40440000     -73.60410000
H      -41.85440000     -34.99870000     -73.69240000
H      -42.42400000     -33.38170000     -73.87800000
C      -42.45110000     -32.19190000     -69.02640000
H      -41.82190000     -32.37890000     -68.14610000
H      -41.87710000     -31.43180000     -69.50150000
S      -44.08590000     -35.13130000     -74.67960000
S      -44.06580000     -31.46480000     -68.39390000
C      -45.15990000     -33.64980000     -75.06880000
H      -44.80630000     -33.06450000     -75.84310000
H      -46.06030000     -34.09900000     -75.41290000
C      -44.55660000     -30.27320000     -69.74370000
H      -43.62850000     -29.79730000     -70.18560000
H      -45.06770000     -29.53750000     -69.10960000
C      -45.32710000     -30.87870000     -70.90900000
H      -45.80370000     -30.01780000     -71.49050000
H      -44.59400000     -31.38400000     -71.52610000
C      -45.37520000     -32.83810000     -73.81000000
H      -45.56670000     -31.77700000     -73.93440000
H      -44.53430000     -32.84070000     -73.13070000
C      -46.50380000     -33.33670000     -72.88600000
C      -47.30920000     -34.44140000     -73.12640000
C      -46.95210000     -32.77240000     -71.57670000
H      -47.05920000     -35.09750000     -73.98830000
C      -47.95890000     -33.57230000     -70.95030000
C      -46.37920000     -31.83350000     -70.60280000
C      -47.19770000     -31.78710000     -69.48910000
S      -48.53880000     -34.84510000     -71.98620000
S      -48.45220000     -33.03760000     -69.39810000
H      -47.08300000     -31.22670000     -68.64510000
