40
Properties=species:S:1:pos:R:3 #=T CELL(abcABC):=T 1.889726e+02=T 90.00000=T Traj:=T positionsangstrom=T Step:=T 0=T Bead:=T pbc="F F F"
C      -45.34080000     -29.28950000     -72.90970000
C      -45.49770000     -30.02320000     -71.73900000
C      -46.01750000     -31.36400000     -71.91930000
C      -46.63500000     -31.67640000     -73.12190000
C      -46.71000000     -30.81220000     -74.19070000
C      -45.99140000     -29.64370000     -74.09220000
H      -44.78330000     -28.29980000     -72.77690000
H      -46.01200000     -31.96430000     -70.96040000
H      -47.23870000     -31.14590000     -75.14860000
H      -45.82810000     -29.01990000     -75.05490000
C      -47.38680000     -32.96720000     -73.09310000
H      -48.26610000     -32.80730000     -73.69010000
H      -47.57960000     -33.35080000     -72.10750000
C      -44.91350000     -29.57600000     -70.42570000
H      -44.21880000     -28.72720000     -70.73050000
H      -45.71850000     -28.98670000     -69.83690000
S      -46.37890000     -34.22680000     -74.02960000
S      -44.15410000     -30.80870000     -69.31440000
C      -44.65420000     -33.75220000     -73.73690000
H      -44.06160000     -33.86630000     -74.62570000
H      -44.51420000     -32.70550000     -73.39980000
C      -43.11170000     -31.84430000     -70.36000000
H      -42.07470000     -31.36480000     -70.48530000
H      -43.48090000     -31.81460000     -71.37590000
C      -42.98600000     -33.29300000     -69.86140000
H      -42.42780000     -33.85550000     -70.62810000
H      -42.38970000     -33.23490000     -68.99320000
C      -43.86430000     -34.69250000     -72.80420000
H      -43.14670000     -34.02610000     -72.21870000
H      -43.18440000     -35.26660000     -73.36610000
C      -44.57600000     -35.57680000     -71.78270000
C      -45.26790000     -36.73400000     -72.11150000
C      -44.68820000     -35.24390000     -70.39170000
H      -45.38040000     -37.07300000     -73.15870000
C      -45.57570000     -36.06130000     -69.73620000
C      -44.25660000     -34.12090000     -69.56110000
C      -44.92390000     -34.10620000     -68.34560000
S      -46.29980000     -37.34690000     -70.79810000
S      -45.89580000     -35.55050000     -68.10790000
H      -44.81790000     -33.45160000     -67.49780000
