40
Properties=species:S:1:pos:R:3 #=T CELL(abcABC):=T 1.889726e+02=T 90.00000=T Traj:=T positionsangstrom=T Step:=T 0=T Bead:=T pbc="F F F"
C      -42.83960000     -34.54220000     -68.92670000
C      -43.30350000     -33.31470000     -68.67350000
C      -43.01740000     -32.23690000     -69.53550000
C      -42.02850000     -32.42360000     -70.57900000
C      -41.61430000     -33.74460000     -70.92500000
C      -42.03030000     -34.76710000     -70.01970000
H      -42.99750000     -35.27650000     -68.12360000
H      -43.45250000     -31.23010000     -69.25130000
H      -41.00950000     -33.80230000     -71.80270000
H      -41.67640000     -35.75350000     -70.31030000
C      -41.58510000     -31.28220000     -71.45310000
H      -40.57240000     -31.51370000     -71.81610000
H      -41.55140000     -30.35460000     -70.84800000
C      -44.24110000     -33.07310000     -67.48250000
H      -43.61970000     -33.34960000     -66.65960000
H      -44.67670000     -32.02100000     -67.39980000
S      -42.62130000     -30.92420000     -72.92910000
S      -45.49330000     -34.36290000     -67.33550000
C      -43.75120000     -32.30040000     -72.99860000
H      -43.97410000     -32.51950000     -74.01570000
H      -43.33090000     -33.19240000     -72.52080000
C      -46.67390000     -34.13990000     -68.83330000
H      -46.78590000     -33.09090000     -69.01570000
H      -47.65550000     -34.56160000     -68.52200000
C      -46.13690000     -34.78520000     -70.15800000
H      -45.23390000     -34.28920000     -70.37810000
H      -45.86350000     -35.79800000     -69.97790000
C      -45.11970000     -31.98390000     -72.26380000
H      -45.33060000     -30.87860000     -72.16690000
H      -45.05750000     -32.28850000     -71.24780000
C      -46.35280000     -32.54380000     -72.93400000
C      -46.86000000     -32.02580000     -74.10360000
C      -47.08690000     -33.67550000     -72.47330000
H      -46.22360000     -31.55120000     -74.78080000
C      -48.14720000     -33.95520000     -73.31980000
C      -47.12230000     -34.63310000     -71.28440000
C      -48.02310000     -35.61090000     -71.44980000
S      -48.26460000     -32.83150000     -74.67470000
S      -49.01980000     -35.43730000     -72.92610000
H      -48.17730000     -36.46820000     -70.72790000
