40
Properties=species:S:1:pos:R:3 #=T CELL(abcABC):=T 1.889726e+02=T 90.00000=T Traj:=T positionsangstrom=T Step:=T 0=T Bead:=T pbc="F F F"
C      -44.15650000     -34.09700000     -69.71310000
C      -43.25760000     -33.21960000     -70.35570000
C      -42.81910000     -33.48320000     -71.67130000
C      -43.22990000     -34.68270000     -72.25730000
C      -44.02640000     -35.59300000     -71.62930000
C      -44.59250000     -35.28750000     -70.35520000
H      -44.43590000     -33.85790000     -68.70270000
H      -42.11350000     -32.71040000     -72.06670000
H      -44.33650000     -36.50100000     -72.06910000
H      -45.24910000     -36.00050000     -69.82530000
C      -42.72080000     -34.90360000     -73.68310000
H      -42.11890000     -35.76790000     -73.73250000
H      -41.98330000     -34.00250000     -73.89470000
C      -42.72420000     -32.07630000     -69.48720000
H      -41.92940000     -32.43200000     -68.84220000
H      -42.26090000     -31.33130000     -70.13530000
S      -44.17850000     -34.85400000     -74.84510000
S      -43.95020000     -31.17450000     -68.42150000
C      -44.85760000     -33.15040000     -74.86920000
H      -44.24410000     -32.41310000     -75.33140000
H      -45.64250000     -33.23660000     -75.63820000
C      -44.81400000     -30.03510000     -69.56580000
H      -44.10140000     -29.28750000     -69.91480000
H      -45.60010000     -29.42530000     -69.04900000
C      -45.35360000     -30.83770000     -70.78980000
H      -45.75700000     -30.13610000     -71.55320000
H      -44.49250000     -31.36280000     -71.25230000
C      -45.36070000     -32.58470000     -73.48600000
H      -45.99010000     -31.65360000     -73.69030000
H      -44.52820000     -32.33160000     -72.84180000
C      -46.23860000     -33.42000000     -72.63840000
C      -46.90520000     -34.56070000     -73.09500000
C      -46.76950000     -32.94600000     -71.36340000
H      -46.72340000     -35.10010000     -73.96950000
C      -47.67750000     -33.81680000     -70.79900000
C      -46.46020000     -31.83450000     -70.39150000
C      -47.12060000     -32.02390000     -69.20180000
S      -48.02270000     -35.23390000     -71.87160000
S      -48.02980000     -33.50320000     -69.08740000
H      -46.88180000     -31.51490000     -68.25980000
