40
Properties=species:S:1:pos:R:3 #=T CELL(abcABC):=T 1.889726e+02=T 90.00000=T Traj:=T positionsangstrom=T Step:=T 0=T Bead:=T pbc="F F F"
C      -43.74010000     -34.39560000     -69.40910000
C      -43.01380000     -33.32740000     -69.96560000
C      -42.81230000     -33.29120000     -71.37420000
C      -43.38800000     -34.31000000     -72.19460000
C      -44.09150000     -35.31950000     -71.60230000
C      -44.28570000     -35.33580000     -70.23830000
H      -43.84220000     -34.47640000     -68.29030000
H      -42.19120000     -32.49510000     -71.93250000
H      -44.41350000     -36.19120000     -72.24370000
H      -44.68010000     -36.15830000     -69.75480000
C      -43.08250000     -34.19740000     -73.71050000
H      -42.07160000     -34.72910000     -73.89270000
H      -42.96970000     -33.19800000     -73.88890000
C      -42.47840000     -32.22290000     -69.10870000
H      -41.73310000     -32.49830000     -68.35070000
H      -41.88460000     -31.45760000     -69.64660000
S      -44.38560000     -34.91700000     -74.80160000
S      -43.85520000     -31.28010000     -68.27770000
C      -45.22210000     -33.33980000     -75.14690000
H      -44.57310000     -32.73650000     -75.77470000
H      -46.05460000     -33.56080000     -75.82620000
C      -44.52750000     -30.21140000     -69.59660000
H      -43.67290000     -29.55300000     -69.93340000
H      -45.31170000     -29.55950000     -69.11890000
C      -45.16140000     -30.81280000     -70.83100000
H      -45.67700000     -29.95660000     -71.35970000
H      -44.48170000     -31.28020000     -71.57960000
C      -45.69780000     -32.58350000     -73.92410000
H      -46.38890000     -31.76040000     -74.25410000
H      -44.79970000     -32.13520000     -73.42090000
C      -46.60520000     -33.35920000     -72.91060000
C      -47.40050000     -34.43130000     -73.21700000
C      -46.66690000     -33.00290000     -71.52390000
H      -47.39780000     -34.93820000     -74.19660000
C      -47.56500000     -33.90560000     -70.85420000
C      -46.25310000     -32.01330000     -70.56470000
C      -46.76850000     -32.22570000     -69.30490000
S      -48.19250000     -35.13830000     -71.87370000
S      -47.85470000     -33.55440000     -69.19150000
H      -46.70750000     -31.62340000     -68.39110000
