40
Properties=species:S:1:pos:R:3 #=T CELL(abcABC):=T 1.889726e+02=T 90.00000=T Traj:=T positionsangstrom=T Step:=T 0=T Bead:=T pbc="F F F"
C      -43.90470000     -34.40260000     -69.38140000
C      -43.19180000     -33.28890000     -69.98850000
C      -43.03110000     -33.29160000     -71.43260000
C      -43.48060000     -34.31050000     -72.23520000
C      -44.19080000     -35.36690000     -71.62120000
C      -44.39180000     -35.39860000     -70.26350000
H      -44.11070000     -34.46700000     -68.31480000
H      -42.53160000     -32.48290000     -71.87430000
H      -44.66660000     -36.14110000     -72.30510000
H      -45.00480000     -36.19410000     -69.87210000
C      -43.00230000     -34.45250000     -73.65680000
H      -42.38480000     -35.34080000     -73.74140000
H      -42.45170000     -33.70510000     -74.11230000
C      -42.55950000     -32.23620000     -69.14410000
H      -42.04000000     -32.67630000     -68.31790000
H      -41.90900000     -31.61760000     -69.76470000
S      -44.32970000     -34.93410000     -74.83660000
S      -43.80720000     -31.18080000     -68.32970000
C      -45.32670000     -33.40060000     -75.10470000
H      -44.73350000     -32.71690000     -75.81080000
H      -46.17580000     -33.67180000     -75.70610000
C      -44.55890000     -30.14580000     -69.66930000
H      -43.75870000     -29.57550000     -70.17130000
H      -45.08430000     -29.40100000     -69.11370000
C      -45.27610000     -30.86770000     -70.85700000
H      -45.80550000     -30.07770000     -71.38040000
H      -44.47770000     -31.18910000     -71.51970000
C      -45.64850000     -32.58450000     -73.81390000
H      -46.24590000     -31.73830000     -74.10740000
H      -44.77180000     -32.04960000     -73.50790000
C      -46.38460000     -33.34450000     -72.79770000
C      -47.06290000     -34.46780000     -73.14340000
C      -46.68130000     -32.93500000     -71.46070000
H      -46.91970000     -34.76350000     -74.19400000
C      -47.51150000     -33.92150000     -70.82830000
C      -46.30750000     -31.91810000     -70.52810000
C      -46.73630000     -32.12120000     -69.24590000
S      -48.11030000     -35.11580000     -71.93250000
S      -47.83340000     -33.56250000     -69.14870000
H      -46.58210000     -31.54850000     -68.39690000
