40
Properties=species:S:1:pos:R:3 #=T CELL(abcABC):=T 1.889726e+02=T 90.00000=T Traj:=T positionsangstrom=T Step:=T 0=T Bead:=T pbc="F F F"
C      -47.48890000     -34.31380000     -70.70570000
C      -47.90320000     -33.08840000     -71.28690000
C      -47.27230000     -31.91810000     -70.78550000
C      -46.40200000     -31.97790000     -69.67510000
C      -46.03650000     -33.24430000     -69.16180000
C      -46.60330000     -34.40700000     -69.67760000
H      -48.08440000     -35.15220000     -71.19420000
H      -47.36670000     -30.88250000     -71.16600000
H      -45.24140000     -33.14600000     -68.42090000
H      -46.20030000     -35.32800000     -69.33710000
C      -45.80410000     -30.73090000     -69.12730000
H      -46.20030000     -30.57460000     -68.06550000
H      -46.06950000     -29.79810000     -69.67020000
C      -48.85840000     -32.99650000     -72.47800000
H      -49.60620000     -33.69920000     -72.37220000
H      -49.17750000     -31.94330000     -72.65230000
S      -43.94830000     -30.82450000     -69.00240000
S      -48.11290000     -33.48870000     -74.20780000
C      -43.35280000     -30.39010000     -70.66670000
H      -43.87840000     -29.50210000     -71.07740000
H      -42.31410000     -30.10600000     -70.51270000
C      -46.59180000     -32.34350000     -74.10010000
H      -46.56360000     -31.84660000     -73.07540000
H      -46.77140000     -31.58280000     -74.85080000
C      -45.24980000     -33.17770000     -74.00030000
H      -44.99520000     -33.77740000     -74.87570000
H      -44.35040000     -32.54400000     -73.90890000
C      -43.49570000     -31.55670000     -71.70180000
H      -42.81610000     -31.41260000     -72.54800000
H      -44.56290000     -31.53960000     -71.96760000
C      -43.33060000     -32.99530000     -71.19530000
C      -42.55080000     -33.43820000     -70.12760000
C      -44.11890000     -34.05450000     -71.82170000
H      -41.70790000     -32.91670000     -69.64960000
C      -43.82920000     -35.28470000     -71.20310000
C      -45.05130000     -34.20960000     -72.89580000
C      -45.56080000     -35.49270000     -72.96500000
S      -42.72240000     -35.17000000     -69.89280000
S      -44.75530000     -36.61240000     -71.83930000
H      -46.05350000     -35.95410000     -73.79810000
