40
Properties=species:S:1:pos:R:3 #=T CELL(abcABC):=T 1.889726e+02=T 90.00000=T Traj:=T positionsangstrom=T Step:=T 0=T Bead:=T pbc="F F F"
C      -43.64070000     -34.48230000     -69.69270000
C      -43.03820000     -33.36680000     -70.35440000
C      -42.76820000     -33.41140000     -71.73310000
C      -43.28820000     -34.45510000     -72.50570000
C      -43.92650000     -35.53300000     -71.83760000
C      -44.00140000     -35.58450000     -70.46020000
H      -43.76140000     -34.39970000     -68.55330000
H      -42.29690000     -32.58310000     -72.19160000
H      -44.26450000     -36.33430000     -72.48610000
H      -44.53640000     -36.41620000     -69.90760000
C      -42.93930000     -34.33690000     -73.98700000
H      -42.34070000     -35.17410000     -74.31280000
H      -42.35380000     -33.33710000     -74.02620000
C      -42.46970000     -32.25750000     -69.56710000
H      -41.54390000     -32.50650000     -69.17330000
H      -42.17830000     -31.42040000     -70.28520000
S      -44.45340000     -34.38960000     -75.07120000
S      -43.66560000     -31.66880000     -68.29020000
C      -45.19120000     -32.64020000     -74.83040000
H      -44.52510000     -31.91340000     -75.24790000
H      -46.05780000     -32.70590000     -75.47150000
C      -44.72810000     -30.39370000     -69.10230000
H      -44.12610000     -29.55290000     -69.43350000
H      -45.24970000     -29.88190000     -68.28200000
C      -45.58010000     -30.74820000     -70.36540000
H      -46.20820000     -29.91750000     -70.49660000
H      -44.98460000     -30.90940000     -71.19530000
C      -45.62760000     -32.14530000     -73.43740000
H      -46.29980000     -31.26190000     -73.59390000
H      -44.95140000     -31.69720000     -72.76580000
C      -46.49350000     -33.07840000     -72.60160000
C      -47.17460000     -34.18970000     -73.14410000
C      -46.81930000     -32.91920000     -71.18550000
H      -46.91570000     -34.52220000     -74.14180000
C      -47.60730000     -34.00270000     -70.78450000
C      -46.48940000     -32.00370000     -70.17440000
C      -47.16600000     -32.36200000     -68.99910000
S      -48.16110000     -35.11450000     -72.02970000
S      -47.91150000     -33.91640000     -69.09250000
H      -47.07410000     -31.88790000     -68.01860000
