40
Properties=species:S:1:pos:R:3 #=T CELL(abcABC):=T 1.889726e+02=T 90.00000=T Traj:=T positionsangstrom=T Step:=T 0=T Bead:=T pbc="F F F"
C      -47.55350000     -33.94010000     -70.63230000
C      -47.72790000     -32.64490000     -71.13980000
C      -47.11220000     -31.51810000     -70.54670000
C      -46.20250000     -31.76090000     -69.52850000
C      -45.98980000     -33.08630000     -69.06360000
C      -46.63920000     -34.15330000     -69.61590000
H      -48.08860000     -34.78870000     -71.09350000
H      -47.18510000     -30.45940000     -70.85780000
H      -45.26540000     -33.16320000     -68.32310000
H      -46.42900000     -35.17270000     -69.20660000
C      -45.43560000     -30.53220000     -69.03580000
H      -45.75680000     -30.20350000     -68.03600000
H      -45.60010000     -29.64820000     -69.68310000
C      -48.63540000     -32.50300000     -72.29200000
H      -49.55560000     -33.08450000     -72.14220000
H      -48.91430000     -31.43120000     -72.40470000
S      -43.61280000     -30.87440000     -68.77280000
S      -47.88280000     -33.28340000     -73.84840000
C      -42.87740000     -30.90190000     -70.44730000
H      -42.49830000     -29.92050000     -70.76510000
H      -41.98030000     -31.52410000     -70.36610000
C      -46.33690000     -32.40350000     -73.99370000
H      -46.14480000     -31.81410000     -73.02340000
H      -46.29630000     -31.64850000     -74.84390000
C      -45.11260000     -33.23900000     -74.31870000
H      -45.20800000     -33.63890000     -75.35920000
H      -44.41870000     -32.41120000     -74.28290000
C      -43.61650000     -31.66930000     -71.59290000
H      -43.22930000     -31.37130000     -72.55440000
H      -44.60550000     -31.33570000     -71.76330000
C      -43.60600000     -33.28920000     -71.25730000
C      -43.00900000     -33.78460000     -70.10370000
C      -44.24150000     -34.25420000     -72.10950000
H      -42.49440000     -33.34040000     -69.23500000
C      -44.19070000     -35.46040000     -71.43460000
C      -44.95460000     -34.34980000     -73.33590000
C      -45.51920000     -35.58540000     -73.56130000
S      -43.33340000     -35.48270000     -69.91120000
S      -45.05450000     -36.68800000     -72.27150000
H      -46.14450000     -35.81970000     -74.42470000
