40
Properties=species:S:1:pos:R:3 #=T CELL(abcABC):=T 1.889726e+02=T 90.00000=T Traj:=T positionsangstrom=T Step:=T 0=T Bead:=T pbc="F F F"
C      -47.59660000     -34.04840000     -70.55480000
C      -47.74710000     -32.76060000     -71.16490000
C      -46.99860000     -31.66470000     -70.70090000
C      -46.20020000     -31.77740000     -69.56310000
C      -46.10690000     -33.07700000     -68.99190000
C      -46.73210000     -34.23100000     -69.51360000
H      -48.15270000     -34.92040000     -71.03350000
H      -47.05790000     -30.64170000     -71.16210000
H      -45.56470000     -33.22360000     -68.06950000
H      -46.54670000     -35.14270000     -69.01340000
C      -45.41140000     -30.61670000     -68.92650000
H      -45.77550000     -30.41640000     -67.91780000
H      -45.46570000     -29.73010000     -69.57600000
C      -48.68680000     -32.63300000     -72.32810000
H      -49.65270000     -33.11250000     -72.16260000
H      -48.92430000     -31.52930000     -72.41300000
S      -43.59440000     -30.83410000     -68.85100000
S      -48.07430000     -33.25820000     -73.95360000
C      -42.96940000     -30.66270000     -70.63550000
H      -43.33970000     -29.71120000     -71.10500000
H      -41.90920000     -30.54860000     -70.38540000
C      -46.47680000     -32.31660000     -73.97090000
H      -46.28260000     -31.81070000     -73.00390000
H      -46.53890000     -31.48500000     -74.62750000
C      -45.24940000     -33.19320000     -74.26180000
H      -45.29180000     -33.70430000     -75.21940000
H      -44.40520000     -32.51280000     -74.44790000
C      -43.20380000     -31.82430000     -71.68730000
H      -42.29380000     -31.74350000     -72.35600000
H      -44.10680000     -31.44970000     -72.22440000
C      -43.47130000     -33.22280000     -71.17120000
C      -42.86450000     -33.69710000     -70.07140000
C      -44.24870000     -34.20590000     -71.98210000
H      -42.39220000     -33.11870000     -69.25610000
C      -44.23190000     -35.43530000     -71.33640000
C      -44.90340000     -34.31130000     -73.31600000
C      -45.38220000     -35.57740000     -73.52200000
S      -43.32990000     -35.47810000     -69.78180000
S      -44.99780000     -36.69850000     -72.33200000
H      -45.84580000     -35.73350000     -74.46050000
