40
Properties=species:S:1:pos:R:3 #=T CELL(abcABC):=T 1.889726e+02=T 90.00000=T Traj:=T positionsangstrom=T Step:=T 0=T Bead:=T pbc="F F F"
C      -47.46860000     -34.22260000     -70.65120000
C      -47.86720000     -33.02670000     -71.22260000
C      -47.24060000     -31.89340000     -70.73960000
C      -46.27490000     -31.94070000     -69.68680000
C      -46.08920000     -33.12730000     -69.02660000
C      -46.64590000     -34.30200000     -69.58680000
H      -47.92100000     -35.05780000     -71.13400000
H      -47.43370000     -30.88780000     -71.19230000
H      -45.38480000     -33.01620000     -68.20600000
H      -46.45720000     -35.33790000     -69.10010000
C      -45.75830000     -30.68420000     -69.17820000
H      -46.20900000     -30.46400000     -68.22240000
H      -45.91670000     -29.90920000     -69.92010000
C      -48.87120000     -33.10120000     -72.30650000
H      -49.55160000     -33.96760000     -72.23180000
H      -49.55950000     -32.25090000     -72.24750000
S      -43.93120000     -30.85070000     -68.90830000
S      -48.09220000     -33.21890000     -74.01090000
C      -43.17110000     -30.54360000     -70.54180000
H      -43.42660000     -29.55200000     -70.97430000
H      -42.12320000     -30.57450000     -70.31210000
C      -46.46130000     -32.41130000     -73.98850000
H      -46.28310000     -31.90450000     -73.02480000
H      -46.42620000     -31.64260000     -74.71860000
C      -45.20680000     -33.33330000     -74.27410000
H      -45.29780000     -33.80820000     -75.25140000
H      -44.36270000     -32.62900000     -74.47790000
C      -43.41840000     -31.57030000     -71.66200000
H      -42.63090000     -31.24110000     -72.44740000
H      -44.34620000     -31.35670000     -72.15420000
C      -43.37660000     -33.03430000     -71.38720000
C      -42.55120000     -33.45040000     -70.36870000
C      -44.13660000     -34.13630000     -72.00540000
H      -42.07410000     -32.80250000     -69.66470000
C      -43.98620000     -35.28060000     -71.21850000
C      -44.97820000     -34.33030000     -73.15730000
C      -45.47880000     -35.62900000     -73.24320000
S      -42.75010000     -35.18980000     -69.94880000
S      -44.96890000     -36.66450000     -71.82300000
H      -46.27100000     -36.02760000     -73.87140000
