40
Properties=species:S:1:pos:R:3 #=T CELL(abcABC):=T 1.889726e+02=T 90.00000=T Traj:=T positionsangstrom=T Step:=T 0=T Bead:=T pbc="F F F"
C      -47.81330000     -34.16620000     -70.46850000
C      -47.88390000     -32.94840000     -71.07130000
C      -47.12990000     -31.87480000     -70.69480000
C      -46.26240000     -31.91220000     -69.60600000
C      -46.09170000     -33.16590000     -69.00080000
C      -46.86850000     -34.31520000     -69.40950000
H      -48.45140000     -35.05650000     -70.68810000
H      -47.31540000     -30.97070000     -71.21560000
H      -45.28950000     -33.36780000     -68.27530000
H      -46.68570000     -35.26010000     -68.96460000
C      -45.57100000     -30.69470000     -69.10200000
H      -45.89360000     -30.61730000     -68.04490000
H      -45.88160000     -29.79440000     -69.60870000
C      -48.76000000     -32.71040000     -72.25080000
H      -49.58250000     -33.36790000     -72.23990000
H      -48.98300000     -31.66400000     -72.38960000
S      -43.64240000     -30.85610000     -69.06550000
S      -47.92070000     -33.18360000     -73.93450000
C      -43.05050000     -30.54600000     -70.81170000
H      -43.56150000     -29.69190000     -71.21790000
H      -41.97220000     -30.36140000     -70.75590000
C      -46.39460000     -32.11340000     -74.00000000
H      -46.46690000     -31.54270000     -73.08740000
H      -46.52990000     -31.40110000     -74.85650000
C      -45.17750000     -33.05840000     -74.14690000
H      -45.44610000     -33.39490000     -75.16530000
H      -44.11610000     -32.61660000     -74.12110000
C      -43.36600000     -31.73250000     -71.72180000
H      -42.73170000     -31.78960000     -72.55250000
H      -44.43050000     -31.56520000     -72.02730000
C      -43.42610000     -33.18690000     -71.21430000
C      -42.81060000     -33.70960000     -70.12480000
C      -44.15900000     -34.21270000     -71.94890000
H      -42.05500000     -33.30570000     -69.51180000
C      -44.16010000     -35.42080000     -71.31350000
C      -44.95670000     -34.25960000     -73.20090000
C      -45.45420000     -35.51290000     -73.45430000
S      -43.10490000     -35.40940000     -69.84310000
S      -44.95290000     -36.67920000     -72.11400000
H      -45.91530000     -35.83900000     -74.36130000
