40
Properties=species:S:1:pos:R:3 #=T CELL(abcABC):=T 1.889726e+02=T 90.00000=T Traj:=T positionsangstrom=T Step:=T 0=T Bead:=T pbc="F F F"
C      -46.50750000     -30.00700000     -73.39070000
C      -45.89610000     -30.40180000     -72.19590000
C      -46.42450000     -31.60780000     -71.69100000
C      -47.48930000     -32.33600000     -72.29720000
C      -48.08010000     -31.83300000     -73.45430000
C      -47.58040000     -30.61020000     -74.00230000
H      -45.93230000     -29.15070000     -73.88510000
H      -45.93560000     -32.08470000     -70.79480000
H      -48.94440000     -32.30200000     -73.91650000
H      -47.91850000     -30.26560000     -75.04020000
C      -48.01580000     -33.69340000     -71.75560000
H      -49.09780000     -33.80620000     -71.82720000
H      -47.73100000     -34.03360000     -70.78110000
C      -44.76310000     -29.61780000     -71.67590000
H      -44.44290000     -28.75590000     -72.37540000
H      -45.17760000     -29.00360000     -70.84450000
S      -47.47470000     -34.97960000     -73.00800000
S      -43.34490000     -30.64330000     -70.96030000
C      -45.72420000     -34.60030000     -73.33080000
H      -45.58440000     -34.39720000     -74.43460000
H      -45.48430000     -33.58390000     -72.98740000
C      -43.20420000     -31.92820000     -72.23240000
H      -42.61090000     -31.41450000     -73.04600000
H      -44.20580000     -32.18940000     -72.67030000
C      -42.52480000     -33.17420000     -71.68160000
H      -42.59490000     -33.91460000     -72.50870000
H      -41.47490000     -32.94640000     -71.51440000
C      -44.65810000     -35.67730000     -72.96940000
H      -43.77460000     -35.27940000     -73.35500000
H      -44.96000000     -36.59980000     -73.49650000
C      -44.71570000     -35.81950000     -71.46590000
C      -45.57470000     -36.78650000     -70.98960000
C      -44.11130000     -34.87520000     -70.46790000
H      -46.20430000     -37.56520000     -71.43050000
C      -44.64710000     -35.15580000     -69.23990000
C      -43.22360000     -33.70480000     -70.43040000
C      -43.23770000     -33.15430000     -69.14260000
S      -45.90790000     -36.41090000     -69.20300000
S      -44.20630000     -34.05440000     -68.00050000
H      -42.70630000     -32.23340000     -68.86220000
