40
Properties=species:S:1:pos:R:3 #=T CELL(abcABC):=T 1.889726e+02=T 90.00000=T Traj:=T positionsangstrom=T Step:=T 0=T Bead:=T pbc="F F F"
C      -46.41010000     -29.68370000     -73.21760000
C      -45.71820000     -30.31820000     -72.12510000
C      -46.14130000     -31.66480000     -71.76330000
C      -47.21220000     -32.30610000     -72.40710000
C      -47.97690000     -31.59990000     -73.38590000
C      -47.53250000     -30.33310000     -73.83150000
H      -46.00170000     -28.76390000     -73.58470000
H      -45.51980000     -32.21890000     -71.08960000
H      -48.63210000     -32.17430000     -74.04710000
H      -47.90570000     -29.94620000     -74.75750000
C      -47.66240000     -33.76600000     -72.04980000
H      -48.68580000     -33.73570000     -71.94020000
H      -47.09700000     -34.05670000     -71.12840000
C      -44.56100000     -29.52430000     -71.55780000
H      -44.03500000     -28.88020000     -72.25540000
H      -44.98470000     -28.91230000     -70.85450000
S      -47.28620000     -34.99240000     -73.37310000
S      -43.20380000     -30.48790000     -70.78570000
C      -45.55330000     -34.63660000     -73.86240000
H      -45.53550000     -34.91600000     -74.94270000
H      -45.19970000     -33.54670000     -73.78510000
C      -42.91440000     -31.96300000     -71.94740000
H      -42.20710000     -31.73950000     -72.74010000
H      -43.89190000     -32.13440000     -72.43960000
C      -42.51010000     -33.27080000     -71.27030000
H      -42.06500000     -33.88660000     -72.10480000
H      -41.59940000     -32.95530000     -70.72090000
C      -44.57560000     -35.60670000     -73.02360000
H      -43.53040000     -35.27710000     -73.07900000
H      -44.50590000     -36.54070000     -73.52200000
C      -44.97270000     -35.71240000     -71.55810000
C      -45.88580000     -36.62980000     -71.05980000
C      -44.37600000     -34.98670000     -70.45190000
H      -46.42170000     -37.41180000     -71.53370000
C      -44.96170000     -35.29810000     -69.20580000
C      -43.50650000     -33.87500000     -70.26200000
C      -43.49360000     -33.40430000     -68.98560000
S      -46.21890000     -36.48830000     -69.29800000
S      -44.51290000     -34.26130000     -67.90210000
H      -42.73890000     -32.72960000     -68.64390000
