40
Properties=species:S:1:pos:R:3 #=T CELL(abcABC):=T 1.889726e+02=T 90.00000=T Traj:=T positionsangstrom=T Step:=T 0=T Bead:=T pbc="F F F"
C      -48.17600000     -30.39520000     -70.07510000
C      -46.74820000     -30.48570000     -69.83490000
C      -46.28040000     -31.50260000     -69.01350000
C      -47.11990000     -32.41920000     -68.45370000
C      -48.52590000     -32.36320000     -68.68110000
C      -49.05110000     -31.33640000     -69.52540000
H      -48.60540000     -29.73960000     -70.83670000
H      -45.21350000     -31.59110000     -68.79070000
H      -49.23590000     -33.13490000     -68.38430000
H      -50.07020000     -31.30260000     -69.89350000
C      -46.55190000     -33.46190000     -67.51710000
H      -47.02570000     -33.36360000     -66.59780000
H      -45.53500000     -33.18470000     -67.27160000
C      -45.83190000     -29.46510000     -70.48360000
H      -46.07840000     -28.42950000     -70.43440000
H      -44.80370000     -29.56320000     -70.09600000
S      -46.35160000     -35.20840000     -67.96120000
S      -45.70250000     -29.87620000     -72.30070000
C      -44.89610000     -35.43630000     -69.05000000
H      -44.04320000     -35.07760000     -68.51070000
H      -44.70930000     -36.49210000     -69.16660000
C      -44.97090000     -31.54090000     -72.25290000
H      -45.01560000     -31.97440000     -71.25300000
H      -43.93960000     -31.61270000     -72.52640000
C      -45.84560000     -32.53470000     -73.11700000
H      -46.76120000     -32.75450000     -72.51090000
H      -46.13640000     -32.07470000     -74.03970000
C      -45.13970000     -34.67930000     -70.37980000
H      -44.94500000     -33.64670000     -70.14750000
H      -46.13700000     -34.89740000     -70.80300000
C      -44.16620000     -35.10460000     -71.47680000
C      -43.16080000     -36.01760000     -71.25630000
C      -44.22320000     -34.64570000     -72.85140000
H      -42.90740000     -36.61810000     -70.34340000
C      -43.31280000     -35.34300000     -73.65480000
C      -45.00640000     -33.70310000     -73.55950000
C      -44.67300000     -33.65960000     -74.90790000
S      -42.34680000     -36.53720000     -72.80390000
S      -43.43730000     -34.83120000     -75.36510000
H      -45.09410000     -33.05590000     -75.73380000
