40
Properties=species:S:1:pos:R:3 #=T CELL(abcABC):=T 1.889726e+02=T 90.00000=T Traj:=T positionsangstrom=T Step:=T 0=T Bead:=T pbc="F F F"
C      -46.70690000     -29.81120000     -73.39270000
C      -45.97710000     -30.35610000     -72.31620000
C      -46.50380000     -31.62710000     -71.84940000
C      -47.47440000     -32.41160000     -72.52880000
C      -48.07400000     -31.85240000     -73.63660000
C      -47.65570000     -30.55800000     -74.01750000
H      -46.34110000     -28.85380000     -73.82200000
H      -46.07550000     -32.11290000     -71.01230000
H      -48.92110000     -32.27520000     -74.14040000
H      -48.15440000     -30.23810000     -75.01520000
C      -47.93640000     -33.65010000     -71.88960000
H      -49.03440000     -33.61300000     -71.72970000
H      -47.48740000     -33.90120000     -70.92400000
C      -44.85150000     -29.53030000     -71.68280000
H      -44.54000000     -28.73350000     -72.36510000
H      -45.01700000     -29.07140000     -70.72270000
S      -47.61100000     -35.12070000     -73.13890000
S      -43.41720000     -30.59380000     -71.17980000
C      -45.90430000     -34.85100000     -73.61850000
H      -45.83110000     -34.98430000     -74.67830000
H      -45.72570000     -33.78540000     -73.52210000
C      -43.28940000     -31.99460000     -72.43950000
H      -42.68030000     -31.58530000     -73.20680000
H      -44.24750000     -32.31960000     -72.95960000
C      -42.70110000     -33.19520000     -71.66560000
H      -42.69360000     -34.06970000     -72.32650000
H      -41.63870000     -32.90080000     -71.52320000
C      -44.81000000     -35.62740000     -72.81480000
H      -43.84650000     -35.21310000     -73.17050000
H      -44.87020000     -36.65240000     -73.22170000
C      -44.92670000     -35.64300000     -71.31420000
C      -45.80880000     -36.59060000     -70.69440000
C      -44.27340000     -34.76070000     -70.33460000
H      -46.37240000     -37.45070000     -71.12240000
C      -44.58030000     -35.05680000     -69.01140000
C      -43.30530000     -33.64820000     -70.35510000
C      -42.92520000     -33.18370000     -69.11780000
S      -45.67970000     -36.42520000     -68.88660000
S      -43.70420000     -34.16340000     -67.84510000
H      -42.10320000     -32.49520000     -69.00300000
