40
Properties=species:S:1:pos:R:3 #=T CELL(abcABC):=T 1.889726e+02=T 90.00000=T Traj:=T positionsangstrom=T Step:=T 0=T Bead:=T pbc="F F F"
C      -46.65040000     -30.33040000     -73.73820000
C      -46.05360000     -30.62360000     -72.52320000
C      -46.60800000     -31.71120000     -71.77800000
C      -47.56660000     -32.50790000     -72.37800000
C      -48.16090000     -32.18120000     -73.59340000
C      -47.70560000     -31.08150000     -74.26390000
H      -46.18680000     -29.58740000     -74.36400000
H      -46.15580000     -32.00530000     -70.86200000
H      -49.06550000     -32.68320000     -74.00990000
H      -48.33580000     -30.78930000     -75.15760000
C      -48.11280000     -33.78120000     -71.69230000
H      -49.13810000     -33.56680000     -71.59340000
H      -47.79930000     -33.85800000     -70.63520000
C      -44.94510000     -29.81840000     -71.90300000
H      -44.55350000     -29.01200000     -72.55660000
H      -45.27450000     -29.34230000     -70.96690000
S      -47.90970000     -35.28090000     -72.74050000
S      -43.44960000     -30.79010000     -71.39840000
C      -46.19370000     -35.09030000     -73.45530000
H      -46.39820000     -35.54940000     -74.42810000
H      -46.02260000     -34.03340000     -73.49530000
C      -43.49040000     -32.15380000     -72.65630000
H      -42.94340000     -31.83290000     -73.59810000
H      -44.47440000     -32.45470000     -72.97150000
C      -42.68050000     -33.36510000     -72.13200000
H      -42.78300000     -34.24110000     -72.84050000
H      -41.65590000     -33.10600000     -72.13810000
C      -45.12830000     -35.75060000     -72.51290000
H      -44.12180000     -35.55850000     -72.82500000
H      -45.25860000     -36.81140000     -72.61700000
C      -45.20630000     -35.49280000     -70.98520000
C      -46.08880000     -36.07640000     -70.09030000
C      -44.12180000     -34.69260000     -70.36360000
H      -47.05890000     -36.46870000     -70.38090000
C      -44.28000000     -34.74610000     -68.93760000
C      -43.01200000     -33.87200000     -70.77320000
C      -42.31280000     -33.30570000     -69.70770000
S      -45.65610000     -35.60490000     -68.42410000
S      -43.06920000     -33.68460000     -68.16070000
H      -41.46900000     -32.73950000     -69.83480000
