40
Properties=species:S:1:pos:R:3 #=T CELL(abcABC):=T 1.889726e+02=T 90.00000=T Traj:=T positionsangstrom=T Step:=T 0=T Bead:=T pbc="F F F"
C      -47.69700000     -33.23980000     -70.81600000
C      -47.60040000     -32.02750000     -71.47850000
C      -46.71820000     -31.09320000     -71.03930000
C      -46.02140000     -31.21270000     -69.80210000
C      -46.14670000     -32.37150000     -69.04340000
C      -46.98620000     -33.38000000     -69.62830000
H      -48.17950000     -34.12650000     -71.25990000
H      -46.63270000     -30.13200000     -71.57580000
H      -45.55290000     -32.63790000     -68.19370000
H      -46.93610000     -34.35840000     -69.13860000
C      -44.97630000     -30.19360000     -69.50590000
H      -45.29150000     -29.56350000     -68.62400000
H      -44.70420000     -29.46650000     -70.25910000
C      -48.25390000     -31.72950000     -72.85840000
H      -49.31730000     -32.06110000     -72.86010000
H      -48.12910000     -30.67990000     -73.00210000
S      -43.41870000     -30.95550000     -68.81480000
S      -47.44860000     -32.68810000     -74.37950000
C      -42.53620000     -31.58220000     -70.39740000
H      -42.02320000     -30.74450000     -70.84100000
H      -41.61100000     -32.10250000     -70.00050000
C      -45.66300000     -32.25600000     -73.97980000
H      -45.65070000     -31.76940000     -73.06740000
H      -45.38880000     -31.52050000     -74.79120000
C      -44.77850000     -33.49640000     -74.06750000
H      -44.97390000     -33.91670000     -75.10330000
H      -43.78290000     -33.14860000     -73.85450000
C      -43.31340000     -32.44590000     -71.29790000
H      -42.77760000     -32.51840000     -72.26360000
H      -44.30150000     -31.98830000     -71.57240000
C      -43.54390000     -33.90820000     -70.94360000
C      -43.31240000     -34.42220000     -69.70290000
C      -44.26650000     -34.83390000     -71.78950000
H      -42.73410000     -33.90900000     -68.91750000
C      -44.59130000     -36.02940000     -71.15100000
C      -45.06700000     -34.61870000     -73.00130000
C      -45.86960000     -35.65480000     -73.33570000
S      -43.92800000     -35.98280000     -69.55930000
S      -45.78630000     -36.93990000     -72.07760000
H      -46.52000000     -35.48780000     -74.21240000
