40
Properties=species:S:1:pos:R:3 #=T CELL(abcABC):=T 1.889726e+02=T 90.00000=T Traj:=T positionsangstrom=T Step:=T 0=T Bead:=T pbc="F F F"
C      -46.59260000     -29.99750000     -73.60660000
C      -46.13000000     -30.49750000     -72.37270000
C      -46.72180000     -31.69650000     -71.83200000
C      -47.69830000     -32.36700000     -72.56920000
C      -48.20670000     -31.81590000     -73.77410000
C      -47.67720000     -30.63870000     -74.24990000
H      -46.27700000     -29.01700000     -73.86800000
H      -46.52670000     -31.97890000     -70.82670000
H      -48.92010000     -32.44200000     -74.33100000
H      -48.09640000     -30.22420000     -75.18940000
C      -48.31720000     -33.68480000     -72.11240000
H      -49.41570000     -33.78820000     -72.22020000
H      -48.02950000     -33.79540000     -70.98050000
C      -45.00860000     -29.78370000     -71.60830000
H      -44.75340000     -28.85820000     -72.18230000
H      -45.40500000     -29.47810000     -70.62700000
S      -47.83880000     -35.08850000     -73.12640000
S      -43.53020000     -30.81480000     -71.13450000
C      -45.99720000     -34.79780000     -73.40700000
H      -45.82410000     -34.92920000     -74.46880000
H      -45.84180000     -33.75020000     -73.23520000
C      -43.28080000     -32.05970000     -72.47180000
H      -42.61800000     -31.61360000     -73.27590000
H      -44.27300000     -32.32240000     -72.86760000
C      -42.52880000     -33.36690000     -71.94360000
H      -42.66470000     -34.13740000     -72.74000000
H      -41.49410000     -33.15530000     -71.88660000
C      -45.03870000     -35.76200000     -72.64350000
H      -44.02020000     -35.66110000     -73.03300000
H      -45.43390000     -36.76770000     -72.88010000
C      -44.99670000     -35.54270000     -71.12140000
C      -45.78820000     -36.29890000     -70.31420000
C      -44.17700000     -34.71160000     -70.29100000
H      -46.53460000     -37.01480000     -70.70930000
C      -44.37550000     -34.87850000     -68.87500000
C      -42.99120000     -33.89760000     -70.58640000
C      -42.42400000     -33.48700000     -69.43350000
S      -45.64660000     -36.06010000     -68.61520000
S      -43.24040000     -33.93780000     -67.97050000
H      -41.48390000     -32.95110000     -69.28300000
