40
Properties=species:S:1:pos:R:3 #=T CELL(abcABC):=T 1.889726e+02=T 90.00000=T Traj:=T positionsangstrom=T Step:=T 0=T Bead:=T pbc="F F F"
C      -47.91520000     -33.16100000     -70.74690000
C      -47.69140000     -32.01020000     -71.55100000
C      -46.68710000     -31.09720000     -71.16550000
C      -45.97960000     -31.35700000     -69.94780000
C      -46.29950000     -32.44680000     -69.08720000
C      -47.26050000     -33.37860000     -69.53980000
H      -48.69140000     -33.91400000     -71.02260000
H      -46.42990000     -30.30660000     -71.84810000
H      -45.86770000     -32.47540000     -68.10070000
H      -47.60840000     -34.28860000     -68.94520000
C      -44.93710000     -30.34110000     -69.39840000
H      -45.27150000     -29.78900000     -68.49950000
H      -44.82070000     -29.47810000     -70.08270000
C      -48.38120000     -31.84500000     -72.92450000
H      -49.20840000     -32.56270000     -72.90510000
H      -48.82880000     -30.84360000     -73.06820000
S      -43.34500000     -31.07040000     -68.81500000
S      -47.39890000     -32.48930000     -74.36640000
C      -42.40080000     -31.49710000     -70.34920000
H      -42.35830000     -30.55990000     -70.87910000
H      -41.49050000     -31.92220000     -70.02800000
C      -45.59890000     -32.44380000     -74.04230000
H      -45.44240000     -32.27240000     -72.99010000
H      -45.10710000     -31.48410000     -74.51370000
C      -44.81690000     -33.73530000     -74.28740000
H      -44.90480000     -34.22700000     -75.25300000
H      -43.75140000     -33.45860000     -74.23800000
C      -43.06620000     -32.42670000     -71.33950000
H      -42.35960000     -32.51280000     -72.21890000
H      -43.85390000     -31.77160000     -71.76540000
C      -43.62530000     -33.70770000     -70.92860000
C      -43.19150000     -34.35750000     -69.77140000
C      -44.48560000     -34.58000000     -71.73100000
H      -42.51490000     -33.94100000     -69.03170000
C      -44.86220000     -35.75430000     -71.00050000
C      -44.97320000     -34.73420000     -73.08770000
C      -45.55480000     -35.94300000     -73.34370000
S      -43.99810000     -35.87680000     -69.50260000
S      -45.69890000     -36.95530000     -71.98910000
H      -45.88790000     -36.04600000     -74.36660000
