40
Properties=species:S:1:pos:R:3 #=T CELL(abcABC):=T 1.889726e+02=T 90.00000=T Traj:=T positionsangstrom=T Step:=T 0=T Bead:=T pbc="F F F"
C      -46.57630000     -30.01520000     -73.55630000
C      -46.09830000     -30.62420000     -72.37520000
C      -46.70790000     -31.78740000     -71.90810000
C      -47.79260000     -32.35820000     -72.64710000
C      -48.28250000     -31.78050000     -73.81320000
C      -47.59620000     -30.64180000     -74.26830000
H      -45.96930000     -29.29240000     -74.05070000
H      -46.28250000     -32.24160000     -71.03980000
H      -49.10440000     -32.23880000     -74.32030000
H      -47.86610000     -30.22970000     -75.18670000
C      -48.36860000     -33.61890000     -72.08490000
H      -49.45410000     -33.67610000     -72.14480000
H      -48.11530000     -33.67960000     -71.06480000
C      -45.05550000     -29.91300000     -71.63910000
H      -44.70400000     -29.05760000     -72.21080000
H      -45.28210000     -29.56010000     -70.65500000
S      -47.83360000     -35.17080000     -73.00560000
S      -43.51790000     -30.86320000     -71.21560000
C      -46.03550000     -34.79600000     -73.31810000
H      -45.90150000     -34.99340000     -74.43780000
H      -45.91230000     -33.77290000     -73.10430000
C      -43.39920000     -32.20550000     -72.50330000
H      -43.01940000     -31.76990000     -73.39320000
H      -44.36360000     -32.67670000     -72.69430000
C      -42.47280000     -33.32600000     -71.97970000
H      -42.39080000     -34.18730000     -72.70250000
H      -41.47630000     -32.90910000     -71.75920000
C      -45.08900000     -35.72330000     -72.55420000
H      -44.06420000     -35.71230000     -72.92890000
H      -45.49310000     -36.75030000     -72.73860000
C      -44.98740000     -35.55650000     -71.07140000
C      -45.84510000     -36.24170000     -70.28280000
C      -44.09230000     -34.70180000     -70.34890000
H      -46.62910000     -36.91630000     -70.62940000
C      -44.30400000     -34.84180000     -69.00420000
C      -42.99980000     -33.80280000     -70.64220000
C      -42.51560000     -33.28450000     -69.49300000
S      -45.65330000     -35.86560000     -68.52820000
S      -43.15200000     -34.01050000     -67.99390000
H      -41.54350000     -32.71780000     -69.51860000
