40
Properties=species:S:1:pos:R:3 #=T CELL(abcABC):=T 1.889726e+02=T 90.00000=T Traj:=T positionsangstrom=T Step:=T 0=T Bead:=T pbc="F F F"
C      -47.87050000     -33.36120000     -70.65010000
C      -47.65590000     -32.18040000     -71.42050000
C      -46.66800000     -31.24370000     -71.06880000
C      -45.92960000     -31.43210000     -69.83970000
C      -46.11520000     -32.64510000     -69.15390000
C      -47.11780000     -33.53930000     -69.53450000
H      -48.67980000     -34.01250000     -70.89840000
H      -46.47950000     -30.28190000     -71.64490000
H      -45.54900000     -32.88430000     -68.25720000
H      -47.13410000     -34.36470000     -68.91670000
C      -44.91320000     -30.42010000     -69.41290000
H      -45.20470000     -29.86590000     -68.52180000
H      -44.68620000     -29.68790000     -70.20210000
C      -48.38570000     -32.00580000     -72.83380000
H      -49.36120000     -32.52850000     -72.71660000
H      -48.56350000     -30.96570000     -73.02560000
S      -43.30050000     -31.07370000     -68.86710000
S      -47.61790000     -32.92290000     -74.21180000
C      -42.48170000     -31.37140000     -70.45020000
H      -42.24580000     -30.36740000     -70.90380000
H      -41.46800000     -31.70940000     -70.25930000
C      -45.91240000     -32.35890000     -74.02810000
H      -45.78120000     -31.84140000     -73.06770000
H      -45.69620000     -31.59590000     -74.75320000
C      -44.78660000     -33.42440000     -74.16070000
H      -44.70830000     -33.81530000     -75.18170000
H      -43.85740000     -32.88850000     -73.86990000
C      -43.03740000     -32.28550000     -71.53640000
H      -42.31840000     -32.35160000     -72.37010000
H      -43.91000000     -31.79430000     -71.94010000
C      -43.51830000     -33.68790000     -71.09640000
C      -43.20510000     -34.26850000     -69.86880000
C      -44.51680000     -34.46400000     -71.81320000
H      -42.47780000     -33.86760000     -69.24370000
C      -44.80610000     -35.60040000     -71.08990000
C      -44.98300000     -34.55200000     -73.18930000
C      -45.50710000     -35.79690000     -73.50010000
S      -44.08800000     -35.66240000     -69.43790000
S      -45.56980000     -36.82940000     -71.98810000
H      -45.74020000     -36.09340000     -74.50700000
