40
Properties=species:S:1:pos:R:3 #=T CELL(abcABC):=T 1.889726e+02=T 90.00000=T Traj:=T positionsangstrom=T Step:=T 0=T Bead:=T pbc="F F F"
C      -48.10760000     -30.55400000     -70.11560000
C      -46.70370000     -30.53130000     -69.90740000
C      -46.21050000     -31.36900000     -68.88770000
C      -47.09030000     -32.27670000     -68.26040000
C      -48.48750000     -32.20100000     -68.43130000
C      -49.01960000     -31.35960000     -69.44340000
H      -48.41320000     -29.92110000     -70.95430000
H      -45.12010000     -31.36780000     -68.69640000
H      -49.09510000     -32.85430000     -67.82700000
H      -50.05870000     -31.36110000     -69.74790000
C      -46.52420000     -33.35400000     -67.39560000
H      -47.10920000     -33.41670000     -66.42220000
H      -45.48290000     -33.21020000     -67.27310000
C      -45.85480000     -29.58080000     -70.68800000
H      -46.34410000     -28.55790000     -70.61170000
H      -44.80650000     -29.61110000     -70.39480000
S      -46.85340000     -35.00770000     -68.28370000
S      -45.93390000     -29.88900000     -72.48900000
C      -45.25140000     -35.15880000     -69.14220000
H      -44.48250000     -34.75460000     -68.47090000
H      -44.99940000     -36.17420000     -69.34630000
C      -44.79300000     -31.29680000     -72.63140000
H      -44.45800000     -31.63500000     -71.67090000
H      -43.98130000     -31.02540000     -73.33380000
C      -45.54550000     -32.47790000     -73.26130000
H      -46.31820000     -32.76840000     -72.55070000
H      -46.12420000     -32.08000000     -74.14530000
C      -45.19900000     -34.46960000     -70.49390000
H      -45.20160000     -33.38500000     -70.52030000
H      -46.11070000     -34.56570000     -71.04450000
C      -44.20150000     -35.05910000     -71.41050000
C      -43.39150000     -36.13550000     -71.10640000
C      -44.10910000     -34.67850000     -72.79810000
H      -43.24990000     -36.55960000     -70.08290000
C      -43.24400000     -35.52470000     -73.47210000
C      -44.68280000     -33.65630000     -73.64870000
C      -44.16620000     -33.79710000     -74.95820000
S      -42.47200000     -36.77030000     -72.50220000
S      -43.00620000     -35.07860000     -75.12000000
H      -44.38700000     -33.26370000     -75.85280000
