40
Properties=species:S:1:pos:R:3 #=T CELL(abcABC):=T 1.889726e+02=T 90.00000=T Traj:=T positionsangstrom=T Step:=T 0=T Bead:=T pbc="F F F"
C      -47.62690000     -33.54190000     -70.71910000
C      -47.54630000     -32.36640000     -71.40100000
C      -46.68580000     -31.36190000     -70.96860000
C      -45.90620000     -31.48920000     -69.85440000
C      -46.14600000     -32.61450000     -69.03190000
C      -46.97710000     -33.63620000     -69.46410000
H      -48.25670000     -34.39620000     -71.03800000
H      -46.56740000     -30.40730000     -71.64700000
H      -45.70860000     -32.78070000     -68.03010000
H      -46.91880000     -34.51990000     -68.87370000
C      -44.88580000     -30.41760000     -69.56220000
H      -45.33700000     -29.82460000     -68.72730000
H      -44.74650000     -29.83030000     -70.43280000
C      -48.31280000     -32.25350000     -72.72530000
H      -49.25810000     -32.70400000     -72.55320000
H      -48.42800000     -31.25950000     -72.95360000
S      -43.19190000     -31.00380000     -68.86420000
S      -47.52330000     -32.95370000     -74.25000000
C      -42.33690000     -31.55680000     -70.36770000
H      -41.98670000     -30.69160000     -70.85300000
H      -41.58230000     -32.31860000     -70.16360000
C      -45.85440000     -32.28610000     -74.38310000
H      -45.86050000     -31.50710000     -73.63100000
H      -45.73890000     -31.88510000     -75.38380000
C      -44.74860000     -33.32170000     -74.10110000
H      -44.61750000     -33.86400000     -75.06710000
H      -43.85300000     -32.80900000     -73.81950000
C      -43.27040000     -32.16810000     -71.42450000
H      -42.55840000     -32.31680000     -72.29750000
H      -44.11840000     -31.48930000     -71.65840000
C      -43.59250000     -33.60170000     -70.99860000
C      -43.39680000     -34.14200000     -69.76300000
C      -44.42890000     -34.48880000     -71.81750000
H      -42.79240000     -33.78520000     -68.92110000
C      -44.64570000     -35.70790000     -71.12760000
C      -45.07340000     -34.34200000     -73.09620000
C      -45.79280000     -35.49530000     -73.36100000
S      -44.15870000     -35.75730000     -69.46160000
S      -45.74050000     -36.68370000     -72.10950000
H      -46.50070000     -35.54900000     -74.21810000
