40
Properties=species:S:1:pos:R:3 #=T CELL(abcABC):=T 1.889726e+02=T 90.00000=T Traj:=T positionsangstrom=T Step:=T 0=T Bead:=T pbc="F F F"
C      -43.16990000     -34.37180000     -70.63850000
C      -43.22100000     -33.03600000     -70.13470000
C      -43.10570000     -31.96980000     -71.02480000
C      -42.97460000     -32.14200000     -72.41550000
C      -42.89970000     -33.43660000     -72.94900000
C      -42.91500000     -34.49510000     -72.01950000
H      -43.31610000     -35.15660000     -69.92850000
H      -42.90160000     -30.96620000     -70.62950000
H      -43.05220000     -33.69170000     -73.93310000
H      -42.75550000     -35.51010000     -72.48550000
C      -43.22050000     -30.97130000     -73.36080000
H      -42.44080000     -30.84710000     -74.09690000
H      -43.04380000     -30.08230000     -72.75180000
C      -43.30290000     -32.85590000     -68.55760000
H      -42.32220000     -32.96990000     -68.01920000
H      -43.80090000     -31.87990000     -68.31450000
S      -44.75860000     -30.61610000     -74.32310000
S      -44.46280000     -34.01770000     -67.58340000
C      -46.22330000     -30.38100000     -73.19370000
H      -46.49340000     -29.37000000     -72.89900000
H      -47.05640000     -30.59530000     -73.86620000
C      -46.09710000     -33.10370000     -67.52680000
H      -45.93240000     -32.10400000     -67.07170000
H      -46.74250000     -33.72630000     -66.88860000
C      -46.67120000     -32.83540000     -68.96260000
H      -47.62130000     -32.38920000     -68.77720000
H      -46.06690000     -32.14510000     -69.47770000
C      -46.37760000     -31.35800000     -71.95310000
H      -47.15680000     -30.99820000     -71.28370000
H      -45.46170000     -31.26500000     -71.35620000
C      -46.62660000     -32.85090000     -72.26800000
C      -46.92380000     -33.30880000     -73.57020000
C      -46.63670000     -33.95570000     -71.32030000
H      -46.84640000     -32.71950000     -74.43420000
C      -46.75360000     -35.17590000     -71.92530000
C      -46.74570000     -33.98180000     -69.88450000
C      -46.81150000     -35.29740000     -69.44180000
S      -46.95080000     -35.04230000     -73.66550000
S      -47.04880000     -36.44430000     -70.73640000
H      -46.95420000     -35.60340000     -68.40560000
