40
Properties=species:S:1:pos:R:3 #=T CELL(abcABC):=T 1.889726e+02=T 90.00000=T Traj:=T positionsangstrom=T Step:=T 0=T Bead:=T pbc="F F F"
C      -47.63360000     -33.55490000     -70.57470000
C      -47.55820000     -32.44520000     -71.42850000
C      -46.73090000     -31.41540000     -71.06490000
C      -45.99300000     -31.50760000     -69.82040000
C      -46.22550000     -32.55850000     -68.93100000
C      -47.03640000     -33.59700000     -69.36660000
H      -48.23610000     -34.42220000     -70.79350000
H      -46.66790000     -30.49340000     -71.52130000
H      -45.65460000     -32.55730000     -67.99630000
H      -47.27880000     -34.44010000     -68.66860000
C      -45.11180000     -30.37950000     -69.39300000
H      -45.50460000     -29.78270000     -68.58370000
H      -45.07370000     -29.66790000     -70.28920000
C      -48.35840000     -32.31820000     -72.66020000
H      -49.30210000     -32.82330000     -72.60440000
H      -48.55570000     -31.27020000     -72.78050000
S      -43.36490000     -30.89880000     -68.88980000
S      -47.45810000     -32.94900000     -74.25950000
C      -42.38670000     -31.29400000     -70.46900000
H      -42.16020000     -30.40100000     -71.03600000
H      -41.44370000     -31.69760000     -70.07880000
C      -45.69280000     -32.30030000     -74.06790000
H      -45.60510000     -31.87900000     -73.08680000
H      -45.48480000     -31.56320000     -74.83190000
C      -44.62610000     -33.43510000     -74.17600000
H      -44.60010000     -33.79230000     -75.18680000
H      -43.64710000     -33.02630000     -74.04430000
C      -43.11160000     -32.26530000     -71.45470000
H      -42.85710000     -32.01130000     -72.49530000
H      -44.15600000     -31.86550000     -71.47840000
C      -43.38880000     -33.72760000     -71.15880000
C      -43.22610000     -34.20700000     -69.92210000
C      -44.23320000     -34.62670000     -71.95640000
H      -42.65100000     -33.70050000     -69.12050000
C      -44.65740000     -35.72760000     -71.22620000
C      -44.91470000     -34.53310000     -73.22820000
C      -45.83940000     -35.54540000     -73.38540000
S      -44.08950000     -35.71400000     -69.53530000
S      -45.87250000     -36.61830000     -72.00240000
H      -46.51230000     -35.78450000     -74.22450000
