40
Properties=species:S:1:pos:R:3 #=T CELL(abcABC):=T 1.889726e+02=T 90.00000=T Traj:=T positionsangstrom=T Step:=T 0=T Bead:=T pbc="F F F"
C      -48.09200000     -32.96150000     -70.95060000
C      -47.62830000     -31.88740000     -71.73160000
C      -46.72990000     -30.96430000     -71.20560000
C      -46.06130000     -31.12700000     -69.92190000
C      -46.68110000     -32.12710000     -69.11800000
C      -47.59890000     -33.01950000     -69.61810000
H      -48.90770000     -33.59300000     -71.31560000
H      -46.41350000     -30.09000000     -71.82030000
H      -46.29920000     -32.39180000     -68.08830000
H      -47.93310000     -33.79330000     -68.85350000
C      -44.90830000     -30.22200000     -69.56670000
H      -45.22090000     -29.68540000     -68.61240000
H      -44.76480000     -29.56260000     -70.39740000
C      -48.30950000     -31.61220000     -73.09460000
H      -49.38120000     -31.72840000     -73.08600000
H      -47.96910000     -30.61650000     -73.49690000
S      -43.27290000     -30.99390000     -69.11620000
S      -47.71040000     -32.93800000     -74.33290000
C      -42.58050000     -31.41910000     -70.74560000
H      -42.26870000     -30.48430000     -71.30780000
H      -41.66060000     -31.95560000     -70.52370000
C      -45.92650000     -32.67690000     -73.97360000
H      -45.88880000     -32.28380000     -72.99580000
H      -45.47440000     -31.89100000     -74.63150000
C      -45.16170000     -34.00910000     -74.05850000
H      -45.44990000     -34.55330000     -74.96460000
H      -44.10880000     -33.79300000     -74.26500000
C      -43.48560000     -32.36850000     -71.62250000
H      -43.08210000     -32.22340000     -72.61830000
H      -44.46180000     -31.94240000     -71.67820000
C      -43.55320000     -33.71520000     -71.05500000
C      -43.05190000     -34.10970000     -69.84760000
C      -44.33940000     -34.77020000     -71.67700000
H      -42.29510000     -33.55200000     -69.15350000
C      -44.29410000     -35.88270000     -70.89960000
C      -45.20160000     -34.93530000     -72.86920000
C      -45.83900000     -36.09360000     -72.86870000
S      -43.37940000     -35.73060000     -69.42920000
S      -45.31490000     -37.10780000     -71.52960000
H      -46.65630000     -36.57870000     -73.44490000
