40
Properties=species:S:1:pos:R:3 #=T CELL(abcABC):=T 1.889726e+02=T 90.00000=T Traj:=T positionsangstrom=T Step:=T 0=T Bead:=T pbc="F F F"
C      -49.02270000     -34.88090000     -73.51170000
C      -47.68540000     -34.98450000     -73.81240000
C      -46.89060000     -33.78550000     -73.93560000
C      -47.46030000     -32.51480000     -73.74170000
C      -48.80420000     -32.44240000     -73.34230000
C      -49.56960000     -33.60400000     -73.29060000
H      -49.78070000     -35.66140000     -73.46580000
H      -45.80040000     -33.88990000     -74.26330000
H      -49.28900000     -31.53950000     -73.26630000
H      -50.60340000     -33.53780000     -73.05740000
C      -46.56660000     -31.34470000     -73.76100000
H      -46.81890000     -30.54100000     -74.44330000
H      -45.53910000     -31.67980000     -74.19270000
C      -46.91940000     -36.25090000     -74.03550000
H      -47.57800000     -37.10770000     -74.28010000
H      -46.13350000     -36.21500000     -74.78480000
S      -46.36360000     -30.66010000     -72.05210000
S      -45.98090000     -36.82640000     -72.46990000
C      -46.84980000     -32.08890000     -70.92810000
H      -47.89650000     -32.10970000     -70.90990000
H      -46.35730000     -33.00590000     -71.32580000
C      -45.04940000     -35.36720000     -71.84920000
H      -45.43630000     -34.50650000     -72.37700000
H      -43.96060000     -35.49160000     -72.17450000
C      -45.22590000     -35.19820000     -70.30470000
H      -46.06540000     -34.59210000     -70.04820000
H      -45.22800000     -36.20800000     -69.80860000
C      -46.24310000     -31.92230000     -69.58680000
H      -46.57640000     -32.66360000     -68.96170000
H      -46.52400000     -30.95180000     -69.25790000
C      -44.67390000     -31.97880000     -69.41690000
C      -43.99160000     -30.86510000     -69.15370000
C      -43.77160000     -33.12490000     -69.43080000
H      -44.35490000     -29.85510000     -68.94390000
C      -42.43810000     -32.76670000     -69.23680000
C      -43.96020000     -34.52240000     -69.66510000
C      -42.73810000     -35.20150000     -69.59300000
S      -42.21110000     -31.01930000     -69.08910000
S      -41.39300000     -34.12530000     -69.26010000
H      -42.61210000     -36.28740000     -69.63970000
