40
Properties=species:S:1:pos:R:3 #=T CELL(abcABC):=T 1.889726e+02=T 90.00000=T Traj:=T positionsangstrom=T Step:=T 0=T Bead:=T pbc="F F F"
C      -42.92510000     -34.12530000     -70.67920000
C      -43.28650000     -32.96460000     -69.94170000
C      -43.44010000     -31.70720000     -70.60470000
C      -43.26580000     -31.68090000     -72.01660000
C      -42.88600000     -32.81740000     -72.73630000
C      -42.78260000     -34.05810000     -72.04810000
H      -42.87790000     -35.10220000     -70.14710000
H      -43.75620000     -30.73480000     -70.14840000
H      -42.64890000     -32.80960000     -73.82250000
H      -42.38690000     -34.91320000     -72.59650000
C      -43.59740000     -30.36270000     -72.77820000
H      -42.73320000     -29.79140000     -73.04340000
H      -44.01330000     -29.66430000     -72.06530000
C      -43.24530000     -32.92280000     -68.39790000
H      -42.33370000     -33.21470000     -67.96590000
H      -43.54000000     -32.01540000     -67.88630000
S      -44.70690000     -30.53760000     -74.13010000
S      -44.39850000     -34.11140000     -67.51160000
C      -46.35160000     -30.55060000     -73.28630000
H      -46.65090000     -29.51860000     -72.95190000
H      -47.14610000     -30.80840000     -74.04920000
C      -46.12040000     -33.37310000     -67.68710000
H      -46.21170000     -32.34830000     -67.15480000
H      -46.66500000     -34.07250000     -67.06820000
C      -46.50940000     -32.98020000     -69.11670000
H      -47.45100000     -32.40210000     -69.16440000
H      -45.67620000     -32.34700000     -69.50190000
C      -46.45500000     -31.55490000     -72.16820000
H      -47.49390000     -31.44490000     -71.77580000
H      -45.92830000     -31.20880000     -71.31410000
C      -46.35070000     -33.05880000     -72.50280000
C      -46.43840000     -33.53720000     -73.73240000
C      -46.52400000     -34.10200000     -71.45130000
H      -46.46580000     -32.88390000     -74.66880000
C      -46.86530000     -35.33360000     -72.06680000
C      -46.77850000     -34.14980000     -70.04290000
C      -47.14570000     -35.38560000     -69.62920000
S      -46.79770000     -35.23000000     -73.84890000
S      -47.16900000     -36.59860000     -70.93790000
H      -47.25250000     -35.65540000     -68.57640000
