40
Properties=species:S:1:pos:R:3 #=T CELL(abcABC):=T 1.889726e+02=T 90.00000=T Traj:=T positionsangstrom=T Step:=T 0=T Bead:=T pbc="F F F"
C      -48.71910000     -34.92180000     -74.13790000
C      -47.36710000     -34.69980000     -73.93870000
C      -46.92950000     -33.36440000     -73.78650000
C      -47.85900000     -32.28710000     -73.74170000
C      -49.19710000     -32.57520000     -73.66070000
C      -49.65130000     -33.89660000     -73.91130000
H      -48.99220000     -35.96280000     -74.33730000
H      -45.84020000     -33.05020000     -73.79300000
H      -49.94990000     -31.84500000     -73.37600000
H      -50.70850000     -34.05770000     -74.00750000
C      -47.19310000     -30.95190000     -73.39950000
H      -47.87040000     -30.14880000     -73.62370000
H      -46.23740000     -30.84820000     -73.89740000
C      -46.49860000     -35.89620000     -73.88930000
H      -46.75030000     -36.62130000     -74.69230000
H      -45.49010000     -35.59510000     -74.22560000
S      -46.85560000     -30.79330000     -71.54500000
S      -46.39670000     -36.69200000     -72.15440000
C      -46.45040000     -32.48310000     -70.96070000
H      -47.26550000     -33.06310000     -71.28840000
H      -45.56570000     -32.87390000     -71.50000000
C      -44.86060000     -35.85850000     -71.53710000
H      -44.70580000     -34.99530000     -72.21700000
H      -44.02380000     -36.56700000     -71.73180000
C      -44.81380000     -35.47280000     -70.07750000
H      -45.58270000     -34.78160000     -69.88080000
H      -44.95900000     -36.32040000     -69.41540000
C      -46.15160000     -32.35520000     -69.47570000
H      -46.54050000     -33.18140000     -68.89810000
H      -46.60160000     -31.43270000     -69.03820000
C      -44.64880000     -32.23530000     -69.28410000
C      -44.13490000     -31.02090000     -68.95550000
C      -43.61380000     -33.24180000     -69.54380000
H      -44.68060000     -30.11050000     -68.84500000
C      -42.34750000     -32.65960000     -69.42580000
C      -43.55410000     -34.64580000     -69.90610000
C      -42.21780000     -35.10700000     -69.98100000
S      -42.32910000     -30.96970000     -69.06030000
S      -41.08030000     -33.81180000     -69.73380000
H      -41.80100000     -36.09570000     -70.33290000
