40
Properties=species:S:1:pos:R:3 #=T CELL(abcABC):=T 1.889726e+02=T 90.00000=T Traj:=T positionsangstrom=T Step:=T 0=T Bead:=T pbc="F F F"
C      -49.05740000     -34.90510000     -73.56110000
C      -47.65750000     -35.01180000     -73.92600000
C      -46.90500000     -33.85900000     -74.07320000
C      -47.44680000     -32.56640000     -73.73290000
C      -48.86330000     -32.52730000     -73.49950000
C      -49.63720000     -33.69650000     -73.40180000
H      -49.66180000     -35.81380000     -73.29050000
H      -45.86210000     -34.00720000     -74.39840000
H      -49.32580000     -31.59880000     -73.35100000
H      -50.69110000     -33.68040000     -73.24580000
C      -46.45590000     -31.38570000     -73.55910000
H      -46.69640000     -30.60330000     -74.23740000
H      -45.44750000     -31.75050000     -73.72960000
C      -47.08890000     -36.40030000     -74.02350000
H      -47.80660000     -37.16700000     -74.08850000
H      -46.42910000     -36.52590000     -74.90690000
S      -46.51060000     -30.63780000     -71.83080000
S      -46.04750000     -36.83380000     -72.51240000
C      -46.77350000     -32.14430000     -70.71000000
H      -47.86710000     -32.35540000     -70.68600000
H      -46.36430000     -33.08890000     -71.22850000
C      -44.96450000     -35.40690000     -71.93240000
H      -45.35620000     -34.48320000     -72.39540000
H      -43.95980000     -35.52970000     -72.22540000
C      -45.03580000     -35.28410000     -70.38840000
H      -46.07750000     -34.93490000     -70.08910000
H      -44.97000000     -36.30980000     -69.97370000
C      -46.14150000     -32.02970000     -69.38990000
H      -46.41970000     -32.92890000     -68.75670000
H      -46.50170000     -31.20180000     -68.76550000
C      -44.61140000     -31.90920000     -69.41540000
C      -43.95700000     -30.76270000     -69.25190000
C      -43.77420000     -33.04030000     -69.70600000
H      -44.44390000     -29.74330000     -69.15550000
C      -42.45750000     -32.65210000     -69.50330000
C      -43.88900000     -34.47640000     -69.88880000
C      -42.68020000     -35.07970000     -69.65170000
S      -42.16220000     -30.96370000     -69.01590000
S      -41.40670000     -34.02290000     -69.15660000
H      -42.53210000     -36.11800000     -69.84720000
