40
Properties=species:S:1:pos:R:3 #=T CELL(abcABC):=T 1.889726e+02=T 90.00000=T Traj:=T positionsangstrom=T Step:=T 0=T Bead:=T pbc="F F F"
C      -48.16520000     -30.18110000     -70.10490000
C      -46.76920000     -30.36870000     -70.07980000
C      -46.21770000     -31.36090000     -69.23020000
C      -47.09240000     -32.11000000     -68.43070000
C      -48.46100000     -31.83070000     -68.44210000
C      -49.01620000     -30.90850000     -69.25460000
H      -48.53100000     -29.51110000     -70.90870000
H      -45.16730000     -31.50510000     -69.14320000
H      -49.03850000     -32.42140000     -67.76330000
H      -50.10600000     -30.86400000     -69.24950000
C      -46.50840000     -33.12000000     -67.46440000
H      -47.06680000     -33.01270000     -66.50480000
H      -45.36950000     -32.98770000     -67.31760000
C      -45.78780000     -29.56900000     -70.94630000
H      -45.88050000     -28.46260000     -70.72000000
H      -44.72220000     -29.75390000     -70.69070000
S      -46.85620000     -34.93760000     -67.86960000
S      -45.88710000     -29.79350000     -72.78920000
C      -45.69550000     -35.54190000     -69.22390000
H      -44.83650000     -35.86420000     -68.67370000
H      -46.16430000     -36.57260000     -69.69210000
C      -44.69450000     -31.19560000     -73.17580000
H      -43.85910000     -31.20320000     -72.47660000
H      -44.28940000     -30.83250000     -74.10150000
C      -45.45470000     -32.55340000     -73.28480000
H      -45.97190000     -32.61910000     -72.27870000
H      -46.22880000     -32.35810000     -74.02260000
C      -45.28670000     -34.64730000     -70.34040000
H      -44.79570000     -33.81240000     -69.92400000
H      -46.17440000     -34.35480000     -70.99990000
C      -44.30540000     -35.32770000     -71.35580000
C      -43.59470000     -36.46790000     -71.08030000
C      -44.07420000     -34.82220000     -72.66560000
H      -43.57140000     -36.94550000     -70.18220000
C      -43.14990000     -35.60730000     -73.34180000
C      -44.51600000     -33.73230000     -73.56060000
C      -43.91860000     -33.82800000     -74.81210000
S      -42.67140000     -37.00030000     -72.42500000
S      -42.80110000     -35.14290000     -74.99350000
H      -44.05730000     -33.01800000     -75.56170000
