40
Properties=species:S:1:pos:R:3 #=T CELL(abcABC):=T 1.889726e+02=T 90.00000=T Traj:=T positionsangstrom=T Step:=T 0=T Bead:=T pbc="F F F"
C      -43.28520000     -33.75520000     -70.03360000
C      -44.00880000     -32.94130000     -69.20480000
C      -44.38820000     -31.68110000     -69.72870000
C      -43.95530000     -31.21760000     -71.00550000
C      -43.25160000     -32.13830000     -71.82430000
C      -42.89960000     -33.32410000     -71.30750000
H      -42.95610000     -34.72130000     -69.63660000
H      -44.97720000     -31.04860000     -69.02360000
H      -43.06910000     -31.86120000     -72.79260000
H      -42.23290000     -33.90280000     -71.94490000
C      -44.31980000     -29.85890000     -71.50270000
H      -43.49950000     -29.25110000     -71.75470000
H      -44.75630000     -29.21090000     -70.71130000
C      -44.32390000     -33.46650000     -67.82680000
H      -43.39670000     -33.79410000     -67.36400000
H      -44.74770000     -32.70350000     -67.20440000
S      -45.28420000     -29.71040000     -73.06270000
S      -45.32780000     -34.99720000     -67.60230000
C      -47.00710000     -30.38700000     -72.66520000
H      -47.56670000     -29.85270000     -71.82460000
H      -47.59720000     -30.04240000     -73.57250000
C      -47.01550000     -34.62170000     -68.21960000
H      -47.47050000     -33.83380000     -67.49810000
H      -47.70100000     -35.47480000     -67.95590000
C      -47.19500000     -34.05580000     -69.65260000
H      -48.22960000     -33.82110000     -69.94910000
H      -46.71120000     -33.03440000     -69.63880000
C      -47.14020000     -31.84870000     -72.12590000
H      -48.21740000     -32.10260000     -72.10550000
H      -46.75270000     -31.82860000     -71.09320000
C      -46.33710000     -32.95230000     -72.78770000
C      -45.85410000     -32.98640000     -74.08700000
C      -46.15860000     -34.24330000     -72.14590000
H      -45.91470000     -32.20610000     -74.92580000
C      -45.57330000     -35.20120000     -72.96050000
C      -46.52990000     -34.85240000     -70.83650000
C      -46.24260000     -36.22990000     -70.81720000
S      -45.16740000     -34.51020000     -74.51870000
S      -45.26450000     -36.70700000     -72.20880000
H      -46.11870000     -36.75930000     -69.90550000
