40
Properties=species:S:1:pos:R:3 #=T CELL(abcABC):=T 1.889726e+02=T 90.00000=T Traj:=T positionsangstrom=T Step:=T 0=T Bead:=T pbc="F F F"
C      -48.68330000     -35.21530000     -73.82820000
C      -47.31040000     -34.83890000     -74.08540000
C      -46.91740000     -33.52510000     -73.75060000
C      -47.76210000     -32.59630000     -73.13710000
C      -49.11960000     -33.06460000     -72.84740000
C      -49.59620000     -34.26990000     -73.36370000
H      -49.11210000     -36.26520000     -74.10810000
H      -45.88600000     -33.20540000     -73.96150000
H      -49.90070000     -32.49780000     -72.37800000
H      -50.64890000     -34.45250000     -73.32770000
C      -47.29280000     -31.20530000     -72.69680000
H      -48.13970000     -30.53290000     -73.00110000
H      -46.30300000     -30.84460000     -73.08190000
C      -46.21310000     -35.83990000     -74.33980000
H      -46.47600000     -36.64780000     -74.97810000
H      -45.34050000     -35.41520000     -74.78350000
S      -47.05940000     -31.12790000     -70.80240000
S      -45.73920000     -36.76510000     -72.78250000
C      -46.87930000     -32.92900000     -70.43790000
H      -47.92240000     -33.33910000     -70.41760000
H      -46.35640000     -33.35930000     -71.27700000
C      -44.46920000     -35.55770000     -72.04580000
H      -44.74380000     -34.60680000     -72.44180000
H      -43.49480000     -35.84090000     -72.44760000
C      -44.33510000     -35.50220000     -70.51070000
H      -45.26500000     -35.24830000     -69.93440000
H      -43.98810000     -36.50940000     -70.11550000
C      -46.23130000     -33.10410000     -69.03560000
H      -46.19350000     -34.10570000     -68.73320000
H      -46.81300000     -32.55360000     -68.27710000
C      -44.81510000     -32.46300000     -69.06000000
C      -44.55420000     -31.12000000     -68.69440000
C      -43.62230000     -33.10580000     -69.58490000
H      -45.24450000     -30.35270000     -68.38110000
C      -42.56790000     -32.19180000     -69.72010000
C      -43.34040000     -34.38820000     -70.21100000
C      -42.05540000     -34.44480000     -70.70420000
S      -42.93460000     -30.65440000     -69.10260000
S      -41.10170000     -32.97560000     -70.46570000
H      -41.50250000     -35.31300000     -71.04960000
