40
Properties=species:S:1:pos:R:3 #=T CELL(abcABC):=T 1.889726e+02=T 90.00000=T Traj:=T positionsangstrom=T Step:=T 0=T Bead:=T pbc="F F F"
C      -46.11150000     -34.43340000     -68.88780000
C      -46.78380000     -34.83540000     -70.03460000
C      -45.98600000     -35.35140000     -71.07730000
C      -44.60240000     -35.57960000     -70.98670000
C      -43.95330000     -35.20290000     -69.77920000
C      -44.71350000     -34.64500000     -68.75540000
H      -46.61470000     -33.94130000     -68.06260000
H      -46.48450000     -35.72130000     -72.05680000
H      -42.88040000     -35.32240000     -69.65830000
H      -44.12200000     -34.41270000     -67.79710000
C      -43.82600000     -36.30810000     -72.01410000
H      -43.68480000     -37.35410000     -71.60090000
H      -42.78530000     -35.95730000     -72.21790000
C      -48.24370000     -34.60840000     -70.24060000
H      -48.50120000     -34.97600000     -71.23610000
H      -48.87980000     -35.17530000     -69.47640000
S      -44.64990000     -36.41200000     -73.71470000
S      -48.72670000     -32.73650000     -70.01740000
C      -43.94210000     -34.93680000     -74.48340000
H      -42.88960000     -35.01440000     -74.25290000
H      -44.02520000     -35.10930000     -75.56020000
C      -48.67540000     -31.99760000     -71.72370000
H      -48.96060000     -30.94690000     -71.62290000
H      -49.51810000     -32.49150000     -72.23440000
C      -47.36670000     -32.24150000     -72.42750000
H      -47.10230000     -33.32590000     -72.33160000
H      -47.31220000     -31.86370000     -73.39800000
C      -44.66130000     -33.64430000     -73.98480000
H      -45.69790000     -34.02290000     -73.84010000
H      -44.81370000     -32.92140000     -74.73070000
C      -44.09170000     -32.93470000     -72.67200000
C      -42.73850000     -32.95960000     -72.40770000
C      -44.80610000     -32.06350000     -71.75460000
H      -41.88870000     -33.24990000     -73.00850000
C      -43.98190000     -31.43570000     -70.84690000
C      -46.20380000     -31.66660000     -71.58610000
C      -46.29970000     -30.72710000     -70.58560000
S      -42.28680000     -31.88880000     -71.08840000
S      -44.77430000     -30.37110000     -69.74520000
H      -47.14820000     -30.43040000     -70.01940000
