40
Properties=species:S:1:pos:R:3 #=T CELL(abcABC):=T 1.889726e+02=T 90.00000=T Traj:=T positionsangstrom=T Step:=T 0=T Bead:=T pbc="F F F"
C      -48.70800000     -35.53880000     -74.00160000
C      -47.44280000     -34.93730000     -74.18620000
C      -47.23490000     -33.61890000     -73.86410000
C      -48.21410000     -32.79560000     -73.33440000
C      -49.48970000     -33.39500000     -73.12530000
C      -49.75440000     -34.68010000     -73.56960000
H      -48.88010000     -36.51160000     -74.36040000
H      -46.21030000     -33.18460000     -74.08380000
H      -50.37070000     -32.87220000     -72.72720000
H      -50.79670000     -35.01760000     -73.48430000
C      -47.90370000     -31.37820000     -72.93790000
H      -48.68290000     -30.70350000     -73.09890000
H      -46.97680000     -30.91220000     -73.34540000
C      -46.32430000     -35.95030000     -74.40900000
H      -46.89540000     -36.76220000     -74.92060000
H      -45.56010000     -35.61880000     -75.00370000
S      -47.58850000     -31.45020000     -71.11160000
S      -45.52370000     -36.59090000     -72.77200000
C      -46.56500000     -33.04200000     -70.78240000
H      -47.26250000     -33.82260000     -71.08080000
H      -45.87870000     -33.17350000     -71.58260000
C      -44.22700000     -35.30760000     -72.32450000
H      -44.59400000     -34.41980000     -72.79250000
H      -43.35310000     -35.67780000     -72.86700000
C      -43.95040000     -35.24750000     -70.84370000
H      -44.91220000     -35.32180000     -70.28330000
H      -43.43560000     -36.19250000     -70.59930000
C      -46.10040000     -33.07890000     -69.24980000
H      -46.09460000     -34.17480000     -68.95720000
H      -46.87690000     -32.53510000     -68.69970000
C      -44.74240000     -32.37690000     -69.11910000
C      -44.50080000     -31.20590000     -68.44980000
C      -43.51790000     -32.92900000     -69.60450000
H      -45.30270000     -30.62840000     -67.96570000
C      -42.39780000     -32.09480000     -69.38590000
C      -43.05020000     -34.10220000     -70.27940000
C      -41.73390000     -34.04500000     -70.64580000
S      -42.83110000     -30.66770000     -68.40660000
S      -40.86220000     -32.63870000     -69.95710000
H      -41.08270000     -34.82660000     -71.11770000
