40
Properties=species:S:1:pos:R:3 #=T CELL(abcABC):=T 1.889726e+02=T 90.00000=T Traj:=T positionsangstrom=T Step:=T 0=T Bead:=T pbc="F F F"
C      -43.36520000     -33.52140000     -69.56490000
C      -44.60600000     -33.26930000     -68.91020000
C      -45.26700000     -32.10590000     -69.27010000
C      -44.78710000     -31.19770000     -70.24490000
C      -43.60480000     -31.54550000     -70.94740000
C      -42.95040000     -32.70490000     -70.59520000
H      -42.83590000     -34.48330000     -69.41090000
H      -46.21030000     -31.88710000     -68.70680000
H      -43.20160000     -30.89510000     -71.66250000
H      -41.98770000     -33.06050000     -71.10140000
C      -45.47200000     -29.93170000     -70.52600000
H      -44.91090000     -29.05670000     -70.14620000
H      -46.36230000     -29.77200000     -69.92980000
C      -45.11400000     -34.17750000     -67.74060000
H      -44.26480000     -34.36410000     -67.10960000
H      -45.95260000     -33.67240000     -67.22210000
S      -45.70210000     -29.50570000     -72.31230000
S      -45.64370000     -35.86310000     -68.21840000
C      -47.28340000     -30.41870000     -72.65120000
H      -48.13130000     -30.03560000     -72.11820000
H      -47.41580000     -30.22870000     -73.68360000
C      -47.31410000     -35.67710000     -69.03820000
H      -47.93880000     -35.19170000     -68.21390000
H      -47.77070000     -36.64990000     -69.18670000
C      -47.15730000     -34.76370000     -70.31800000
H      -48.06700000     -34.93340000     -70.91740000
H      -47.13500000     -33.74020000     -70.07400000
C      -47.16460000     -31.92100000     -72.28880000
H      -48.11800000     -32.38970000     -72.22070000
H      -46.90910000     -31.99610000     -71.22960000
C      -46.24100000     -32.87280000     -72.98170000
C      -45.66210000     -32.57510000     -74.21680000
C      -45.74960000     -34.12950000     -72.38770000
H      -45.67460000     -31.59930000     -74.75710000
C      -44.70470000     -34.72260000     -73.22270000
C      -46.03330000     -35.08610000     -71.30800000
C      -45.36680000     -36.24580000     -71.33370000
S      -44.39490000     -33.66980000     -74.59360000
S      -44.21560000     -36.29420000     -72.72610000
H      -45.53750000     -37.16210000     -70.77320000
