40
Properties=species:S:1:pos:R:3 #=T CELL(abcABC):=T 1.889726e+02=T 90.00000=T Traj:=T positionsangstrom=T Step:=T 0=T Bead:=T pbc="F F F"
C      -43.28740000     -33.22970000     -69.10450000
C      -44.61210000     -32.80960000     -68.64840000
C      -45.18800000     -31.70320000     -69.24370000
C      -44.53260000     -31.00920000     -70.27190000
C      -43.26050000     -31.43210000     -70.66830000
C      -42.61030000     -32.52840000     -70.09460000
H      -42.84320000     -34.03300000     -68.49260000
H      -46.16920000     -31.37470000     -68.77590000
H      -42.79120000     -30.87080000     -71.45210000
H      -41.59550000     -32.77490000     -70.47610000
C      -45.13230000     -29.62310000     -70.68420000
H      -44.42140000     -28.88150000     -70.50910000
H      -46.09820000     -29.50420000     -70.22130000
C      -45.34170000     -33.68210000     -67.61280000
H      -44.86600000     -33.63030000     -66.63120000
H      -46.40320000     -33.25090000     -67.55500000
S      -45.53490000     -29.56050000     -72.58570000
S      -45.49020000     -35.54430000     -68.04790000
C      -46.99680000     -30.59830000     -72.89010000
H      -47.84110000     -29.99200000     -72.55340000
H      -47.07180000     -30.74140000     -73.91640000
C      -47.16840000     -35.57550000     -68.92800000
H      -47.89970000     -35.15650000     -68.27000000
H      -47.44940000     -36.64720000     -69.16530000
C      -47.20050000     -34.84030000     -70.24660000
H      -48.24760000     -34.77450000     -70.63970000
H      -46.94540000     -33.77930000     -69.93540000
C      -46.98510000     -31.98810000     -72.12660000
H      -48.03060000     -32.36500000     -72.11940000
H      -46.71790000     -31.82850000     -71.10360000
C      -46.12420000     -33.00150000     -72.91840000
C      -45.59140000     -32.72600000     -74.18590000
C      -45.90000000     -34.38080000     -72.53170000
H      -45.47830000     -31.70330000     -74.52600000
C      -45.14890000     -35.07460000     -73.46690000
C      -46.20890000     -35.18270000     -71.35680000
C      -45.68030000     -36.42460000     -71.44910000
S      -44.48040000     -34.01120000     -74.68860000
S      -44.82940000     -36.69300000     -72.98910000
H      -45.92460000     -37.24790000     -70.77960000
