40
Properties=species:S:1:pos:R:3 #=T CELL(abcABC):=T 1.889726e+02=T 90.00000=T Traj:=T positionsangstrom=T Step:=T 0=T Bead:=T pbc="F F F"
C      -44.03130000     -33.40070000     -69.16270000
C      -45.33950000     -33.13180000     -68.80190000
C      -46.01690000     -31.97560000     -69.31370000
C      -45.37610000     -31.04680000     -70.11780000
C      -43.98640000     -31.24460000     -70.33460000
C      -43.33230000     -32.38270000     -69.87560000
H      -43.54700000     -34.30590000     -68.84590000
H      -47.07260000     -31.83060000     -69.03650000
H      -43.47610000     -30.49600000     -70.89270000
H      -42.28750000     -32.25650000     -69.88350000
C      -46.16840000     -29.88310000     -70.63970000
H      -45.84020000     -28.86170000     -70.27980000
H      -47.20350000     -29.96110000     -70.28720000
C      -46.00710000     -34.08520000     -67.89810000
H      -45.58440000     -33.89570000     -66.85530000
H      -47.11640000     -33.97510000     -67.88390000
S      -46.22470000     -29.67530000     -72.51940000
S      -45.70380000     -35.90840000     -68.19240000
C      -47.47520000     -30.94030000     -72.98580000
H      -48.42000000     -30.62560000     -72.62470000
H      -47.55050000     -30.76730000     -74.11550000
C      -46.99600000     -36.22580000     -69.49730000
H      -48.03130000     -36.10390000     -69.04960000
H      -47.02990000     -37.27600000     -69.71800000
C      -47.02930000     -35.25990000     -70.71370000
H      -47.76880000     -35.64310000     -71.40950000
H      -47.24880000     -34.24740000     -70.30710000
C      -47.25060000     -32.45790000     -72.76250000
H      -48.03590000     -32.82290000     -73.40110000
H      -47.43750000     -32.61530000     -71.67250000
C      -45.90760000     -32.98950000     -73.17970000
C      -45.01470000     -32.35960000     -74.00530000
C      -45.39020000     -34.18330000     -72.55410000
H      -44.98620000     -31.61690000     -74.74520000
C      -44.16770000     -34.53150000     -73.15010000
C      -45.72940000     -35.23220000     -71.54340000
C      -44.84980000     -36.25820000     -71.51580000
S      -43.47780000     -33.33670000     -74.22020000
S      -43.55700000     -36.03610000     -72.62130000
H      -44.86650000     -37.18450000     -70.88810000
