40
Properties=species:S:1:pos:R:3 #=T CELL(abcABC):=T 1.889726e+02=T 90.00000=T Traj:=T positionsangstrom=T Step:=T 0=T Bead:=T pbc="F F F"
C      -43.81450000     -33.66480000     -69.24470000
C      -45.10160000     -33.29290000     -68.72900000
C      -45.58940000     -32.08580000     -69.19130000
C      -44.94010000     -31.23960000     -70.09280000
C      -43.72540000     -31.69200000     -70.61660000
C      -43.20360000     -32.91690000     -70.20100000
H      -43.36780000     -34.63300000     -68.89030000
H      -46.56110000     -31.67850000     -68.90830000
H      -43.29840000     -31.16600000     -71.37680000
H      -42.17050000     -33.20560000     -70.50770000
C      -45.64630000     -29.93930000     -70.55310000
H      -45.06140000     -29.09050000     -70.21240000
H      -46.67450000     -30.00070000     -70.16450000
C      -45.85360000     -34.05820000     -67.74330000
H      -45.35720000     -33.86860000     -66.81030000
H      -46.84650000     -33.69170000     -67.57840000
S      -45.84870000     -29.53530000     -72.38730000
S      -45.83070000     -35.87940000     -68.03930000
C      -47.33890000     -30.57820000     -72.65370000
H      -48.08410000     -30.13050000     -71.99030000
H      -47.59050000     -30.41150000     -73.68940000
C      -47.02040000     -36.11190000     -69.41980000
H      -48.05970000     -35.99040000     -68.99200000
H      -46.82300000     -37.10910000     -69.71290000
C      -46.97730000     -35.16810000     -70.60290000
H      -47.94340000     -35.38290000     -71.11290000
H      -47.12420000     -34.14880000     -70.24860000
C      -47.19220000     -32.03300000     -72.25760000
H      -48.22660000     -32.48430000     -72.38830000
H      -47.10410000     -32.11640000     -71.14210000
C      -46.13910000     -32.90230000     -72.99650000
C      -45.44440000     -32.32940000     -74.09810000
C      -45.55230000     -34.17050000     -72.54490000
H      -45.80070000     -31.34990000     -74.38850000
C      -44.47030000     -34.47780000     -73.37370000
C      -45.72110000     -35.12430000     -71.43740000
C      -44.86870000     -36.18770000     -71.48740000
S      -44.09390000     -33.34920000     -74.63370000
S      -43.81760000     -36.08010000     -72.88850000
H      -44.94820000     -37.02530000     -70.82700000
