40
Properties=species:S:1:pos:R:3 #=T CELL(abcABC):=T 1.889726e+02=T 90.00000=T Traj:=T positionsangstrom=T Step:=T 0=T Bead:=T pbc="F F F"
C      -43.95890000     -33.09790000     -69.11370000
C      -45.34760000     -32.98350000     -68.84160000
C      -46.19930000     -32.04330000     -69.44500000
C      -45.60860000     -31.01880000     -70.26070000
C      -44.25320000     -31.13130000     -70.52030000
C      -43.44470000     -32.15280000     -70.01040000
H      -43.49460000     -34.03080000     -68.82120000
H      -47.29800000     -31.96480000     -69.22660000
H      -43.85850000     -30.51040000     -71.28340000
H      -42.44460000     -32.32970000     -70.47460000
C      -46.48050000     -29.90840000     -70.78190000
H      -46.15890000     -28.96660000     -70.33810000
H      -47.52940000     -30.05520000     -70.57420000
C      -45.97450000     -33.97390000     -67.84010000
H      -45.57300000     -33.97460000     -66.85670000
H      -47.06700000     -33.77330000     -67.70980000
S      -46.21020000     -29.72860000     -72.53690000
S      -45.69030000     -35.83630000     -68.25490000
C      -47.32730000     -31.01510000     -73.35050000
H      -48.41630000     -30.86230000     -73.22640000
H      -47.21610000     -30.93390000     -74.47560000
C      -46.92630000     -36.28010000     -69.49060000
H      -47.85980000     -36.30610000     -68.92230000
H      -46.76090000     -37.31110000     -69.84600000
C      -46.89610000     -35.30740000     -70.68130000
H      -47.66540000     -35.74390000     -71.35120000
H      -47.34260000     -34.32930000     -70.33000000
C      -47.22420000     -32.41420000     -72.78380000
H      -47.96660000     -33.15220000     -73.25310000
H      -47.40890000     -32.43320000     -71.72000000
C      -45.84690000     -33.02370000     -72.97040000
C      -45.01510000     -32.48400000     -73.91060000
C      -45.30610000     -34.24320000     -72.39600000
H      -45.14890000     -31.59200000     -74.53350000
C      -44.07350000     -34.55060000     -72.98750000
C      -45.66760000     -35.28170000     -71.46700000
C      -44.82050000     -36.34710000     -71.47700000
S      -43.53450000     -33.42870000     -74.17690000
S      -43.39600000     -36.05660000     -72.42460000
H      -44.89770000     -37.18440000     -70.74400000
