40
Properties=species:S:1:pos:R:3 #=T CELL(abcABC):=T 1.889726e+02=T 90.00000=T Traj:=T positionsangstrom=T Step:=T 0=T Bead:=T pbc="F F F"
C      -44.53110000     -32.40810000     -69.06680000
C      -45.89940000     -32.62670000     -69.04580000
C      -46.67210000     -31.86320000     -69.90720000
C      -46.06900000     -30.98970000     -70.78600000
C      -44.68500000     -30.84090000     -70.93810000
C      -43.91700000     -31.51520000     -69.97160000
H      -43.89280000     -32.97110000     -68.38740000
H      -47.74520000     -31.92140000     -69.93080000
H      -44.30680000     -30.06830000     -71.61340000
H      -42.84890000     -31.46000000     -69.99160000
C      -46.92030000     -30.14510000     -71.74800000
H      -46.58680000     -29.09380000     -71.51650000
H      -47.97180000     -30.13150000     -71.51040000
C      -46.35410000     -33.39090000     -67.82510000
H      -46.06740000     -32.81400000     -66.93390000
H      -47.43860000     -33.44750000     -67.91260000
S      -46.62010000     -30.60280000     -73.57530000
S      -45.55910000     -35.08080000     -67.84900000
C      -47.69630000     -32.14170000     -73.70890000
H      -48.66550000     -31.93590000     -73.20160000
H      -47.89140000     -32.26190000     -74.75430000
C      -46.68720000     -35.95810000     -68.99580000
H      -47.71620000     -35.72440000     -68.70040000
H      -46.48910000     -37.02140000     -68.79660000
C      -46.61670000     -35.40770000     -70.38610000
H      -47.16780000     -35.99520000     -71.08490000
H      -47.13170000     -34.40320000     -70.29010000
C      -47.19330000     -33.46460000     -73.10450000
H      -47.58290000     -34.28980000     -73.70780000
H      -47.55120000     -33.35840000     -72.03460000
C      -45.73820000     -33.71430000     -73.19880000
C      -45.01990000     -33.41710000     -74.30680000
C      -44.98260000     -34.37180000     -72.15320000
H      -45.32860000     -32.89010000     -75.24740000
C      -43.64030000     -34.43460000     -72.55070000
C      -45.23150000     -35.11380000     -70.94490000
C      -44.10910000     -35.74310000     -70.47160000
S      -43.28830000     -33.75650000     -74.11430000
S      -42.69290000     -35.47540000     -71.51270000
H      -44.08390000     -36.49880000     -69.63980000
