40
Properties=species:S:1:pos:R:3 #=T CELL(abcABC):=T 1.889726e+02=T 90.00000=T Traj:=T positionsangstrom=T Step:=T 0=T Bead:=T pbc="F F F"
C      -44.33120000     -32.38840000     -69.00930000
C      -45.73530000     -32.44370000     -68.91680000
C      -46.50290000     -31.62700000     -69.73990000
C      -45.90680000     -30.88870000     -70.78690000
C      -44.50780000     -30.80750000     -70.86740000
C      -43.70320000     -31.64600000     -70.00290000
H      -43.74740000     -32.87590000     -68.24730000
H      -47.61540000     -31.50190000     -69.64430000
H      -44.04760000     -30.37420000     -71.71770000
H      -42.66540000     -31.60120000     -69.94620000
C      -46.78430000     -30.14440000     -71.75480000
H      -46.59510000     -29.09690000     -71.75240000
H      -47.82710000     -30.39360000     -71.60330000
C      -46.49770000     -33.39250000     -67.94670000
H      -46.55320000     -33.07340000     -66.91670000
H      -47.59170000     -33.50880000     -68.27960000
S      -46.69350000     -30.59670000     -73.61410000
S      -45.75720000     -35.02510000     -67.73380000
C      -47.73740000     -32.17080000     -73.86240000
H      -48.73050000     -31.85150000     -73.61940000
H      -47.71060000     -32.24990000     -74.94020000
C      -46.52940000     -36.05650000     -69.02450000
H      -47.48450000     -36.46430000     -68.77020000
H      -45.93710000     -37.00530000     -69.09280000
C      -46.62140000     -35.46300000     -70.43950000
H      -47.36050000     -36.15780000     -70.93640000
H      -47.07500000     -34.50180000     -70.39070000
C      -47.23500000     -33.29940000     -72.96380000
H      -47.91390000     -34.16490000     -73.14140000
H      -47.40980000     -32.96420000     -71.94820000
C      -45.74290000     -33.62720000     -73.18730000
C      -44.95020000     -33.08760000     -74.15070000
C      -45.03580000     -34.56040000     -72.30940000
H      -45.26290000     -32.45660000     -74.96390000
C      -43.67180000     -34.65060000     -72.70250000
C      -45.32780000     -35.39600000     -71.18830000
C      -44.17040000     -35.94740000     -70.63620000
S      -43.33740000     -33.70840000     -74.06570000
S      -42.76360000     -35.55600000     -71.48610000
H      -44.07110000     -36.37830000     -69.64810000
