40
Properties=species:S:1:pos:R:3 #=T CELL(abcABC):=T 1.889726e+02=T 90.00000=T Traj:=T positionsangstrom=T Step:=T 0=T Bead:=T pbc="F F F"
C      -48.42140000     -31.56170000     -72.71200000
C      -47.36330000     -30.72910000     -72.25340000
C      -47.03390000     -30.70640000     -70.90140000
C      -47.74070000     -31.48700000     -69.94470000
C      -48.80550000     -32.29210000     -70.34940000
C      -49.13660000     -32.31680000     -71.71690000
H      -48.60200000     -31.49700000     -73.81130000
H      -46.14390000     -30.00880000     -70.79910000
H      -49.42250000     -32.76780000     -69.70330000
H      -49.88710000     -33.01020000     -72.16350000
C      -47.44060000     -31.46740000     -68.45380000
H      -47.95400000     -32.17020000     -67.78390000
H      -47.57520000     -30.50230000     -68.06080000
C      -46.39110000     -30.09920000     -73.31010000
H      -46.72310000     -30.43610000     -74.28950000
H      -46.45410000     -28.94860000     -73.32100000
S      -45.66550000     -31.63330000     -67.91980000
S      -44.57600000     -30.54250000     -73.01030000
C      -45.27460000     -33.34610000     -68.37850000
H      -44.60140000     -33.84750000     -67.60990000
H      -46.23800000     -33.80760000     -68.40080000
C      -44.55470000     -32.36130000     -73.34690000
H      -44.72810000     -32.72170000     -74.38090000
H      -45.36380000     -32.79240000     -72.74710000
C      -43.21700000     -32.88310000     -72.90260000
H      -42.39740000     -32.65590000     -73.57110000
H      -43.11620000     -32.52870000     -71.87030000
C      -44.63620000     -33.36000000     -69.77690000
H      -43.71080000     -32.85040000     -69.76350000
H      -45.17590000     -32.79690000     -70.54110000
C      -44.44200000     -34.73540000     -70.40030000
C      -44.71380000     -35.84550000     -69.60760000
C      -43.91490000     -35.10960000     -71.70350000
H      -45.03510000     -35.96370000     -68.65810000
C      -43.84310000     -36.50790000     -71.89750000
C      -43.29270000     -34.40030000     -72.77020000
C      -42.89910000     -35.23870000     -73.75730000
S      -44.60450000     -37.36220000     -70.54310000
S      -43.22560000     -36.91500000     -73.46220000
H      -42.36360000     -34.99470000     -74.64680000
