40
Properties=species:S:1:pos:R:3 #=T CELL(abcABC):=T 1.889726e+02=T 90.00000=T Traj:=T positionsangstrom=T Step:=T 0=T Bead:=T pbc="F F F"
C      -44.17570000     -32.81840000     -69.32300000
C      -45.53580000     -32.75490000     -68.93240000
C      -46.36610000     -31.83530000     -69.63980000
C      -45.90120000     -30.96930000     -70.64140000
C      -44.56300000     -31.07020000     -70.99850000
C      -43.73190000     -31.96130000     -70.34300000
H      -43.49370000     -33.56870000     -68.89210000
H      -47.43400000     -31.76610000     -69.32820000
H      -44.13710000     -30.43990000     -71.76090000
H      -42.74840000     -32.13180000     -70.72890000
C      -46.87560000     -30.11080000     -71.39120000
H      -46.67620000     -29.04650000     -71.21370000
H      -47.87280000     -30.30830000     -71.01420000
C      -46.05560000     -33.45870000     -67.77480000
H      -45.68540000     -33.01140000     -66.82260000
H      -47.15650000     -33.54140000     -67.75710000
S      -46.70290000     -30.06540000     -73.26380000
S      -45.52340000     -35.26560000     -67.79640000
C      -47.57680000     -31.66480000     -73.77130000
H      -48.61330000     -31.46460000     -73.55920000
H      -47.58070000     -31.85500000     -74.85450000
C      -46.79370000     -35.96420000     -68.98830000
H      -47.78790000     -35.82180000     -68.52280000
H      -46.71560000     -37.09750000     -69.02230000
C      -46.83280000     -35.46160000     -70.45120000
H      -47.52390000     -36.15090000     -70.95440000
H      -47.16770000     -34.47900000     -70.43310000
C      -47.16610000     -32.93640000     -73.03080000
H      -47.95680000     -33.75480000     -73.24040000
H      -47.21240000     -32.64240000     -71.91990000
C      -45.78430000     -33.45110000     -73.22780000
C      -44.91650000     -32.98920000     -74.20260000
C      -45.20760000     -34.48250000     -72.35570000
H      -45.13300000     -32.27150000     -74.97620000
C      -43.83780000     -34.67910000     -72.71900000
C      -45.52770000     -35.34980000     -71.21920000
C      -44.42480000     -36.01800000     -70.84580000
S      -43.28140000     -33.67460000     -73.98240000
S      -42.94780000     -35.75230000     -71.73380000
H      -44.40930000     -36.84270000     -70.11190000
