40
Properties=species:S:1:pos:R:3 #=T CELL(abcABC):=T 1.889726e+02=T 90.00000=T Traj:=T positionsangstrom=T Step:=T 0=T Bead:=T pbc="F F F"
C      -44.26610000     -32.65300000     -69.23320000
C      -45.64610000     -32.61430000     -69.01140000
C      -46.46690000     -31.81760000     -69.82570000
C      -45.89900000     -30.95730000     -70.79200000
C      -44.52260000     -30.86080000     -70.87650000
C      -43.72310000     -31.71030000     -70.10610000
H      -43.63650000     -33.30200000     -68.62780000
H      -47.49230000     -31.65910000     -69.58660000
H      -43.95630000     -30.26100000     -71.67360000
H      -42.60340000     -31.69220000     -70.20210000
C      -46.78460000     -30.08050000     -71.63240000
H      -46.50020000     -29.05270000     -71.46880000
H      -47.78530000     -30.17830000     -71.32780000
C      -46.19110000     -33.40310000     -67.84420000
H      -45.81080000     -32.96110000     -66.88510000
H      -47.27280000     -33.28370000     -67.74240000
S      -46.79260000     -30.49380000     -73.46370000
S      -45.75900000     -35.14390000     -67.80370000
C      -47.81580000     -32.04980000     -73.42900000
H      -48.79270000     -32.00320000     -72.89950000
H      -47.99440000     -32.32320000     -74.46590000
C      -46.99330000     -35.70010000     -69.03580000
H      -47.97290000     -35.24550000     -68.68520000
H      -47.15130000     -36.75210000     -68.87360000
C      -46.69250000     -35.50190000     -70.54310000
H      -47.12730000     -36.33620000     -71.06840000
H      -47.33390000     -34.64760000     -70.97940000
C      -47.12910000     -33.19960000     -72.76270000
H      -47.68340000     -34.21960000     -72.82420000
H      -47.18600000     -33.03390000     -71.62900000
C      -45.70150000     -33.46080000     -73.11690000
C      -44.95050000     -33.05180000     -74.22600000
C      -44.99050000     -34.36340000     -72.20410000
H      -45.25660000     -32.41850000     -74.95230000
C      -43.63950000     -34.51750000     -72.63710000
C      -45.27710000     -35.29450000     -71.12050000
C      -44.20880000     -35.99260000     -70.70950000
S      -43.26690000     -33.63570000     -74.13280000
S      -42.76390000     -35.76730000     -71.69660000
H      -44.18040000     -36.72230000     -69.95880000
