40
Properties=species:S:1:pos:R:3 #=T CELL(abcABC):=T 1.889726e+02=T 90.00000=T Traj:=T positionsangstrom=T Step:=T 0=T Bead:=T pbc="F F F"
C      -44.27340000     -32.21440000     -69.14700000
C      -45.66050000     -32.34570000     -68.87220000
C      -46.60640000     -31.82240000     -69.72950000
C      -46.22650000     -31.12350000     -70.86270000
C      -44.89140000     -30.95530000     -71.12250000
C      -43.91360000     -31.57140000     -70.33560000
H      -43.52650000     -32.77190000     -68.58320000
H      -47.66710000     -32.06900000     -69.52750000
H      -44.57060000     -30.52430000     -72.09490000
H      -42.86730000     -31.35690000     -70.67250000
C      -47.22950000     -30.42540000     -71.73430000
H      -47.16600000     -29.31020000     -71.66880000
H      -48.26770000     -30.73730000     -71.48070000
C      -46.12560000     -33.09450000     -67.59110000
H      -45.56370000     -32.74110000     -66.72280000
H      -47.20510000     -32.85080000     -67.40710000
S      -47.01000000     -30.67800000     -73.62620000
S      -45.74770000     -34.87250000     -67.56040000
C      -47.72020000     -32.35040000     -73.93090000
H      -48.78690000     -32.37550000     -73.88170000
H      -47.62490000     -32.53760000     -75.01550000
C      -46.47950000     -35.81660000     -68.96340000
H      -47.44330000     -36.18670000     -68.69160000
H      -45.92990000     -36.78570000     -69.07890000
C      -46.54700000     -35.20040000     -70.33490000
H      -47.24780000     -35.90220000     -70.98940000
H      -46.96490000     -34.24670000     -70.37350000
C      -47.11820000     -33.45980000     -73.11090000
H      -47.84770000     -34.42480000     -73.04450000
H      -47.19450000     -33.07160000     -72.12270000
C      -45.68080000     -33.77470000     -73.25660000
C      -44.92860000     -33.41880000     -74.33160000
C      -44.88960000     -34.48750000     -72.27330000
H      -45.21560000     -32.93420000     -75.22550000
C      -43.55930000     -34.62690000     -72.65930000
C      -45.15940000     -35.09790000     -70.93790000
C      -44.02110000     -35.69910000     -70.41210000
S      -43.23130000     -33.85820000     -74.20800000
S      -42.56840000     -35.50880000     -71.44730000
H      -43.85810000     -36.13650000     -69.42680000
