40
Properties=species:S:1:pos:R:3 #=T CELL(abcABC):=T 1.889726e+02=T 90.00000=T Traj:=T positionsangstrom=T Step:=T 0=T Bead:=T pbc="F F F"
C      -44.34500000     -32.35010000     -69.49830000
C      -45.66900000     -32.33350000     -69.10740000
C      -46.64660000     -31.72770000     -69.84200000
C      -46.34050000     -31.10130000     -71.03900000
C      -45.01350000     -31.06840000     -71.43580000
C      -44.02920000     -31.67450000     -70.67050000
H      -43.54800000     -32.93780000     -68.99190000
H      -47.60890000     -31.59150000     -69.47130000
H      -44.81220000     -30.59340000     -72.40580000
H      -43.07390000     -31.50430000     -70.95320000
C      -47.32230000     -30.44180000     -71.93350000
H      -47.40380000     -29.36280000     -71.76840000
H      -48.36180000     -30.85150000     -71.79150000
C      -46.13580000     -32.89660000     -67.75940000
H      -45.70300000     -32.35190000     -66.88180000
H      -47.21010000     -32.85680000     -67.73150000
S      -46.96050000     -30.69850000     -73.78620000
S      -45.64550000     -34.66240000     -67.42490000
C      -47.70210000     -32.31140000     -74.01150000
H      -48.78050000     -32.24200000     -73.67040000
H      -47.68710000     -32.56210000     -75.06370000
C      -46.66060000     -35.55780000     -68.74130000
H      -47.72860000     -35.50250000     -68.41570000
H      -46.23610000     -36.55650000     -68.50460000
C      -46.50410000     -35.30440000     -70.23240000
H      -47.08600000     -36.15010000     -70.70720000
H      -47.21550000     -34.39860000     -70.45820000
C      -47.10530000     -33.59800000     -73.13100000
H      -47.56280000     -34.44530000     -73.54480000
H      -47.37420000     -33.32170000     -72.09110000
C      -45.62890000     -33.88530000     -73.19720000
C      -44.76220000     -33.35860000     -74.15370000
C      -44.95620000     -34.71780000     -72.22200000
H      -45.04520000     -32.64620000     -74.94030000
C      -43.59050000     -34.70990000     -72.48230000
C      -45.18580000     -35.27450000     -70.89310000
C      -44.00880000     -35.75700000     -70.28610000
S      -43.09610000     -33.88720000     -73.88960000
S      -42.59550000     -35.48000000     -71.33300000
H      -43.91360000     -36.15370000     -69.31920000
