40
Properties=species:S:1:pos:R:3 #=T CELL(abcABC):=T 1.889726e+02=T 90.00000=T Traj:=T positionsangstrom=T Step:=T 0=T Bead:=T pbc="F F F"
C      -44.37320000     -32.25660000     -69.12650000
C      -45.73830000     -32.30780000     -68.83580000
C      -46.67050000     -31.73040000     -69.73270000
C      -46.24110000     -31.20990000     -70.97960000
C      -44.86210000     -31.27860000     -71.28080000
C      -43.92930000     -31.78870000     -70.38500000
H      -43.58070000     -32.66440000     -68.46550000
H      -47.75570000     -31.66620000     -69.47730000
H      -44.45600000     -30.85360000     -72.20960000
H      -42.86570000     -31.91030000     -70.48190000
C      -47.26990000     -30.55650000     -71.83770000
H      -47.12260000     -29.50780000     -71.70510000
H      -48.27130000     -30.70940000     -71.40280000
C      -46.20920000     -33.05640000     -67.63680000
H      -46.14020000     -32.56710000     -66.70040000
H      -47.27070000     -33.23520000     -67.81800000
S      -47.16310000     -30.73620000     -73.64270000
S      -45.55330000     -34.78240000     -67.54110000
C      -47.76650000     -32.40620000     -74.04570000
H      -48.85290000     -32.46530000     -73.86110000
H      -47.50470000     -32.48270000     -75.10450000
C      -46.71080000     -35.39770000     -68.77710000
H      -47.74460000     -35.10950000     -68.49390000
H      -46.59680000     -36.49910000     -68.78070000
C      -46.48560000     -34.98310000     -70.23220000
H      -47.10360000     -35.72740000     -70.74230000
H      -46.94740000     -34.04580000     -70.46630000
C      -47.10500000     -33.49710000     -73.22040000
H      -47.50860000     -34.41940000     -73.52720000
H      -47.31570000     -33.24030000     -72.21370000
C      -45.59910000     -33.72040000     -73.20430000
C      -44.84590000     -33.34440000     -74.27240000
C      -44.80690000     -34.40910000     -72.20190000
H      -45.17260000     -32.94550000     -75.21350000
C      -43.48440000     -34.62020000     -72.59140000
C      -45.08470000     -35.02940000     -70.89340000
C      -43.96560000     -35.70120000     -70.39070000
S      -43.18770000     -33.89710000     -74.11140000
S      -42.57440000     -35.59550000     -71.52830000
H      -43.84770000     -36.20500000     -69.46670000
