40
Properties=species:S:1:pos:R:3 #=T CELL(abcABC):=T 1.889726e+02=T 90.00000=T Traj:=T positionsangstrom=T Step:=T 0=T Bead:=T pbc="F F F"
C      -44.33780000     -32.32530000     -69.39370000
C      -45.71950000     -32.40290000     -69.31360000
C      -46.50170000     -31.78640000     -70.27080000
C      -45.97520000     -31.01550000     -71.26650000
C      -44.56950000     -30.77770000     -71.31230000
C      -43.79050000     -31.44040000     -70.35760000
H      -43.67960000     -32.75080000     -68.66510000
H      -47.62890000     -31.85060000     -70.12360000
H      -44.23750000     -30.03440000     -72.03240000
H      -42.70700000     -31.13670000     -70.26360000
C      -46.83920000     -30.17170000     -72.16870000
H      -46.31780000     -29.23160000     -72.42910000
H      -47.83200000     -29.85170000     -71.77780000
C      -46.47170000     -33.03890000     -68.17710000
H      -46.37900000     -32.40460000     -67.28190000
H      -47.56350000     -33.17690000     -68.32510000
S      -46.77070000     -30.93830000     -73.86400000
S      -45.74110000     -34.72890000     -67.64750000
C      -47.71270000     -32.47750000     -73.86980000
H      -48.73080000     -32.39710000     -73.65950000
H      -47.70550000     -32.78080000     -74.98400000
C      -46.72000000     -35.86000000     -68.74910000
H      -47.70770000     -35.95680000     -68.38240000
H      -46.31260000     -36.87330000     -68.62910000
C      -46.67140000     -35.44740000     -70.21720000
H      -47.20560000     -36.28140000     -70.80680000
H      -47.11110000     -34.47100000     -70.27180000
C      -47.29140000     -33.71130000     -73.11590000
H      -47.80370000     -34.64340000     -73.47880000
H      -47.70150000     -33.66070000     -72.07190000
C      -45.75650000     -33.90510000     -73.03670000
C      -44.92570000     -33.41530000     -74.04320000
C      -45.05000000     -34.67910000     -72.05320000
H      -45.27140000     -32.98890000     -74.95540000
C      -43.68720000     -34.66490000     -72.35020000
C      -45.28990000     -35.29330000     -70.82200000
C      -44.11610000     -35.70930000     -70.18960000
S      -43.22210000     -33.63950000     -73.72070000
S      -42.64360000     -35.37860000     -71.15440000
H      -44.06760000     -36.26910000     -69.22830000
