40
Properties=species:S:1:pos:R:3 #=T CELL(abcABC):=T 1.889726e+02=T 90.00000=T Traj:=T positionsangstrom=T Step:=T 0=T Bead:=T pbc="F F F"
C      -46.15900000     -35.95660000     -70.79410000
C      -47.06160000     -35.49970000     -71.82870000
C      -47.73320000     -34.30980000     -71.54250000
C      -47.62560000     -33.62450000     -70.31450000
C      -46.70020000     -34.12720000     -69.40270000
C      -46.05110000     -35.31830000     -69.59280000
H      -45.58940000     -36.88470000     -71.09450000
H      -48.38930000     -33.78380000     -72.22590000
H      -46.48020000     -33.61940000     -68.47980000
H      -45.40050000     -35.60330000     -68.80460000
C      -48.41650000     -32.41140000     -69.90880000
H      -48.81690000     -32.53580000     -68.94320000
H      -49.28860000     -32.35180000     -70.61800000
C      -47.10460000     -36.29530000     -73.05320000
H      -47.21450000     -37.37110000     -72.76110000
H      -47.91650000     -35.99830000     -73.72500000
S      -47.51640000     -30.84010000     -69.74750000
S      -45.47150000     -36.09420000     -73.99690000
C      -47.05920000     -30.25000000     -71.47330000
H      -47.85980000     -30.06300000     -72.13320000
H      -46.62380000     -29.20100000     -71.29400000
C      -45.57130000     -34.28890000     -74.25150000
H      -46.19410000     -33.85880000     -73.46290000
H      -46.02420000     -33.96710000     -75.19760000
C      -44.19220000     -33.54260000     -74.04390000
H      -43.49400000     -33.98470000     -74.76500000
H      -44.31020000     -32.48610000     -74.30350000
C      -45.92180000     -31.02960000     -72.20410000
H      -45.58320000     -30.48760000     -73.06760000
H      -46.34950000     -31.97820000     -72.63770000
C      -44.78160000     -31.46990000     -71.27680000
C      -44.44900000     -30.79000000     -70.04380000
C      -43.93230000     -32.63470000     -71.49080000
H      -44.68910000     -29.78060000     -69.70300000
C      -43.04640000     -32.89030000     -70.41540000
C      -43.63460000     -33.59760000     -72.63810000
C      -42.68240000     -34.54070000     -72.34310000
S      -43.17260000     -31.67000000     -69.15690000
S      -42.06940000     -34.33610000     -70.67720000
H      -42.13400000     -35.22220000     -73.04820000
