40
Properties=species:S:1:pos:R:3 #=T CELL(abcABC):=T 1.889726e+02=T 90.00000=T Traj:=T positionsangstrom=T Step:=T 0=T Bead:=T pbc="F F F"
C      -48.26760000     -31.86530000     -72.63470000
C      -47.25970000     -30.97160000     -72.26600000
C      -46.91750000     -30.82330000     -70.90560000
C      -47.72900000     -31.45300000     -69.87900000
C      -48.75060000     -32.33780000     -70.25130000
C      -48.97080000     -32.61340000     -71.63000000
H      -48.41800000     -32.13710000     -73.68710000
H      -46.15890000     -30.09960000     -70.74600000
H      -49.22670000     -32.83030000     -69.32670000
H      -49.84990000     -33.18080000     -71.93270000
C      -47.49180000     -31.04490000     -68.41390000
H      -48.35200000     -31.41710000     -67.80630000
H      -47.43260000     -29.91030000     -68.21240000
C      -46.50990000     -30.05760000     -73.24700000
H      -46.85280000     -30.30360000     -74.27280000
H      -46.60670000     -29.00920000     -73.03270000
S      -45.77730000     -31.63520000     -67.88730000
S      -44.61940000     -30.35670000     -73.15400000
C      -45.56160000     -33.29070000     -68.65630000
H      -45.28600000     -33.91030000     -67.86460000
H      -46.56730000     -33.74980000     -68.99300000
C      -44.65640000     -32.22300000     -73.17820000
H      -45.06570000     -32.63630000     -74.14900000
H      -45.44620000     -32.58800000     -72.51890000
C      -43.28130000     -32.80680000     -72.92490000
H      -42.63830000     -32.65650000     -73.76940000
H      -42.67030000     -32.34930000     -72.07390000
C      -44.51530000     -33.36220000     -69.73080000
H      -43.53510000     -33.01120000     -69.24770000
H      -44.78680000     -32.62230000     -70.51280000
C      -44.42130000     -34.75470000     -70.30150000
C      -44.85770000     -35.93540000     -69.67500000
C      -43.85690000     -35.08140000     -71.68960000
H      -45.33510000     -36.09540000     -68.73440000
C      -43.83310000     -36.48250000     -71.91950000
C      -43.31000000     -34.37770000     -72.79840000
C      -42.89160000     -35.19190000     -73.80920000
S      -44.55460000     -37.45460000     -70.56980000
S      -43.10120000     -36.95360000     -73.44480000
H      -42.34030000     -34.79350000     -74.64810000
