40
Properties=species:S:1:pos:R:3 #=T CELL(abcABC):=T 1.889726e+02=T 90.00000=T Traj:=T positionsangstrom=T Step:=T 0=T Bead:=T pbc="F F F"
C      -44.52310000     -32.19290000     -69.26130000
C      -45.93830000     -32.22090000     -69.14370000
C      -46.69940000     -31.63520000     -70.16120000
C      -46.06620000     -30.97780000     -71.29490000
C      -44.72230000     -31.04830000     -71.39530000
C      -43.93860000     -31.64220000     -70.38610000
H      -43.84980000     -32.60860000     -68.48900000
H      -47.74580000     -31.73060000     -70.12960000
H      -44.22560000     -30.71510000     -72.33900000
H      -42.83030000     -31.65000000     -70.65640000
C      -46.94000000     -30.23550000     -72.26650000
H      -46.68640000     -29.19390000     -72.27670000
H      -47.99460000     -30.49020000     -72.10060000
C      -46.57950000     -32.91120000     -67.97190000
H      -46.50310000     -32.40560000     -66.98730000
H      -47.62030000     -33.01340000     -68.29460000
S      -46.85660000     -30.96050000     -74.04660000
S      -45.75590000     -34.62730000     -67.57200000
C      -47.84320000     -32.57690000     -73.75500000
H      -48.81730000     -32.29450000     -73.28720000
H      -47.95680000     -33.08860000     -74.66850000
C      -46.50900000     -35.78890000     -68.76690000
H      -47.53390000     -35.94260000     -68.46290000
H      -45.94130000     -36.71710000     -68.80370000
C      -46.41410000     -35.33170000     -70.18650000
H      -47.03900000     -36.03840000     -70.79900000
H      -46.99700000     -34.40170000     -70.22580000
C      -47.16270000     -33.53270000     -72.83910000
H      -47.70460000     -34.49750000     -72.90560000
H      -47.21750000     -33.11410000     -71.89350000
C      -45.68730000     -33.81170000     -73.02790000
C      -44.96930000     -33.51220000     -74.13120000
C      -44.84780000     -34.51350000     -72.00870000
H      -45.25800000     -32.95870000     -74.97890000
C      -43.51950000     -34.69180000     -72.37980000
C      -45.08930000     -35.12060000     -70.74030000
C      -43.95590000     -35.47360000     -70.10260000
S      -43.25160000     -34.08940000     -74.02660000
S      -42.52350000     -35.34870000     -71.10500000
H      -43.96400000     -35.83490000     -69.08390000
