40
Properties=species:S:1:pos:R:3 #=T CELL(abcABC):=T 1.889726e+02=T 90.00000=T Traj:=T positionsangstrom=T Step:=T 0=T Bead:=T pbc="F F F"
C      -44.57350000     -31.77920000     -69.16450000
C      -45.92980000     -31.98570000     -68.92950000
C      -46.82380000     -31.68970000     -69.96970000
C      -46.40250000     -30.99080000     -71.13380000
C      -45.07420000     -30.71390000     -71.26980000
C      -44.10310000     -31.17690000     -70.32900000
H      -43.79610000     -32.17860000     -68.41940000
H      -47.81460000     -31.80610000     -69.70950000
H      -44.71580000     -30.10750000     -72.15860000
H      -43.02620000     -31.13280000     -70.56660000
C      -47.41200000     -30.59420000     -72.21620000
H      -47.53610000     -29.54920000     -72.28600000
H      -48.46860000     -30.94490000     -71.98740000
C      -46.36390000     -32.70500000     -67.66900000
H      -46.13270000     -32.11910000     -66.84920000
H      -47.47630000     -32.95480000     -67.69700000
S      -47.03670000     -31.20960000     -73.96740000
S      -45.41810000     -34.25640000     -67.48890000
C      -47.93240000     -32.81060000     -73.94570000
H      -48.95100000     -32.65490000     -73.52410000
H      -48.15880000     -33.17090000     -74.90660000
C      -46.42860000     -35.39600000     -68.61000000
H      -47.51080000     -35.30070000     -68.38840000
H      -46.29360000     -36.43960000     -68.29440000
C      -46.33330000     -35.05230000     -70.13440000
H      -47.07540000     -35.79570000     -70.55720000
H      -46.58850000     -34.00370000     -70.19110000
C      -47.15770000     -33.79410000     -73.07700000
H      -47.69760000     -34.73700000     -73.21700000
H      -47.26330000     -33.56020000     -72.04220000
C      -45.63240000     -34.01760000     -73.20470000
C      -44.91280000     -33.79950000     -74.34430000
C      -44.73390000     -34.60190000     -72.10160000
H      -45.34740000     -33.55440000     -75.30620000
C      -43.41230000     -34.72350000     -72.49090000
C      -44.99770000     -35.16470000     -70.84160000
C      -43.85960000     -35.75630000     -70.28160000
S      -43.20490000     -34.22040000     -74.09060000
S      -42.41750000     -35.52300000     -71.27180000
H      -43.82840000     -36.39710000     -69.36230000
