40
Properties=species:S:1:pos:R:3 #=T CELL(abcABC):=T 1.889726e+02=T 90.00000=T Traj:=T positionsangstrom=T Step:=T 0=T Bead:=T pbc="F F F"
C      -47.81580000     -29.70490000     -70.61460000
C      -46.46390000     -30.11300000     -70.68130000
C      -46.00270000     -31.11150000     -69.80580000
C      -46.87040000     -31.54980000     -68.83490000
C      -48.22450000     -31.16430000     -68.74790000
C      -48.64160000     -30.15810000     -69.56350000
H      -48.38970000     -29.04710000     -71.32540000
H      -44.93030000     -31.45560000     -69.73940000
H      -48.97640000     -31.62370000     -68.07280000
H      -49.63340000     -29.87690000     -69.45060000
C      -46.27850000     -32.56670000     -67.83770000
H      -46.17980000     -32.15040000     -66.77350000
H      -45.18970000     -32.70340000     -68.08090000
C      -45.71390000     -29.57120000     -71.89490000
H      -45.70280000     -28.44180000     -71.93060000
H      -44.59690000     -29.76110000     -71.77300000
S      -47.06010000     -34.27880000     -67.87080000
S      -46.24880000     -30.33660000     -73.47190000
C      -45.75560000     -35.13700000     -68.87730000
H      -44.78590000     -34.65420000     -68.56400000
H      -45.77020000     -36.17280000     -68.63140000
C      -44.95990000     -31.53220000     -73.80120000
H      -43.94310000     -31.02270000     -73.89730000
H      -45.18210000     -31.99380000     -74.76100000
C      -44.88660000     -32.64730000     -72.69440000
H      -44.67730000     -32.34260000     -71.71310000
H      -45.93350000     -33.08720000     -72.61760000
C      -45.95120000     -34.90600000     -70.43530000
H      -45.98690000     -33.80430000     -70.53780000
H      -46.93350000     -35.26760000     -70.69540000
C      -44.92620000     -35.62200000     -71.23800000
C      -44.58460000     -36.98790000     -71.03770000
C      -43.99990000     -35.09260000     -72.22370000
H      -45.04550000     -37.61000000     -70.28740000
C      -43.14520000     -36.02790000     -72.85110000
C      -43.98210000     -33.82140000     -72.90450000
C      -43.03800000     -33.81030000     -73.88500000
S      -43.23710000     -37.57440000     -72.03060000
S      -42.25320000     -35.36690000     -74.17730000
H      -42.89670000     -33.01300000     -74.59550000
