40
Properties=species:S:1:pos:R:3 #=T CELL(abcABC):=T 1.889726e+02=T 90.00000=T Traj:=T positionsangstrom=T Step:=T 0=T Bead:=T pbc="F F F"
C      -44.48360000     -31.58270000     -69.16360000
C      -45.83850000     -32.02860000     -69.03510000
C      -46.78000000     -31.59770000     -70.02690000
C      -46.42850000     -30.87400000     -71.12280000
C      -45.08410000     -30.44830000     -71.21650000
C      -44.12240000     -30.88230000     -70.29390000
H      -43.71600000     -31.93010000     -68.38880000
H      -47.77270000     -31.97250000     -69.95220000
H      -44.68140000     -29.85720000     -72.07130000
H      -43.07230000     -30.69910000     -70.49960000
C      -47.47840000     -30.38750000     -72.15720000
H      -47.40720000     -29.28010000     -72.17400000
H      -48.46870000     -30.63590000     -71.75980000
C      -46.20450000     -32.84240000     -67.85850000
H      -46.02020000     -32.33520000     -66.90830000
H      -47.24920000     -33.23420000     -67.83030000
S      -47.25050000     -31.16000000     -73.75540000
S      -45.20050000     -34.39710000     -67.63110000
C      -47.82490000     -32.90170000     -73.91490000
H      -48.91870000     -32.97380000     -73.85020000
H      -47.57960000     -33.10980000     -74.99160000
C      -46.24700000     -35.53130000     -68.49210000
H      -47.25720000     -35.54690000     -68.05010000
H      -45.84680000     -36.54420000     -68.24610000
C      -46.26610000     -35.33670000     -69.99940000
H      -47.03710000     -36.04620000     -70.42520000
H      -46.63070000     -34.27820000     -70.13580000
C      -47.18770000     -33.88590000     -72.94170000
H      -47.76680000     -34.74650000     -73.00680000
H      -47.48050000     -33.52020000     -71.91410000
C      -45.72360000     -34.11050000     -73.13060000
C      -44.97060000     -33.69300000     -74.22760000
C      -44.85280000     -34.74500000     -72.10760000
H      -45.41470000     -33.25100000     -75.19890000
C      -43.52230000     -34.68150000     -72.52880000
C      -45.00640000     -35.36500000     -70.80150000
C      -43.83920000     -35.93670000     -70.37120000
S      -43.27920000     -34.01090000     -74.07530000
S      -42.48560000     -35.61980000     -71.49850000
H      -43.60680000     -36.19380000     -69.41470000
