40
Properties=species:S:1:pos:R:3 #=T CELL(abcABC):=T 1.889726e+02=T 90.00000=T Traj:=T positionsangstrom=T Step:=T 0=T Bead:=T pbc="F F F"
C      -45.13760000     -35.81680000     -70.29130000
C      -46.31040000     -35.82530000     -71.01550000
C      -47.30980000     -34.81690000     -70.79180000
C      -47.08520000     -33.89400000     -69.72530000
C      -45.95870000     -33.97300000     -68.99300000
C      -44.96620000     -34.88700000     -69.28830000
H      -44.41870000     -36.60340000     -70.42340000
H      -48.26890000     -34.82380000     -71.38930000
H      -45.74300000     -33.23870000     -68.23340000
H      -44.02460000     -34.92210000     -68.75060000
C      -48.19120000     -32.87170000     -69.45810000
H      -48.73960000     -33.11240000     -68.54220000
H      -48.98530000     -32.98780000     -70.24810000
C      -46.45010000     -36.82060000     -72.15340000
H      -46.09360000     -37.86380000     -72.00910000
H      -47.47700000     -37.05880000     -72.51650000
S      -47.72100000     -31.13500000     -69.26500000
S      -45.51810000     -36.28670000     -73.65230000
C      -47.57460000     -30.51610000     -70.98190000
H      -48.55630000     -30.34110000     -71.42180000
H      -47.10350000     -29.58650000     -70.89350000
C      -46.29410000     -34.56440000     -73.91750000
H      -46.81450000     -34.19750000     -72.96900000
H      -47.06690000     -34.62560000     -74.60220000
C      -45.14610000     -33.60730000     -74.28450000
H      -44.58340000     -33.96890000     -75.16070000
H      -45.47390000     -32.59110000     -74.57360000
C      -46.71930000     -31.39760000     -71.94350000
H      -46.87360000     -30.98300000     -72.97420000
H      -47.22490000     -32.34980000     -72.05840000
C      -45.25340000     -31.46250000     -71.53240000
C      -44.74200000     -30.65870000     -70.56030000
C      -44.29630000     -32.45210000     -72.02070000
H      -45.41030000     -30.28940000     -69.75260000
C      -43.14240000     -32.53040000     -71.19700000
C      -44.11730000     -33.45330000     -73.15020000
C      -42.94880000     -34.11620000     -73.08700000
S      -43.13370000     -31.23440000     -69.97590000
S      -41.94160000     -33.70830000     -71.71560000
H      -42.51960000     -35.01200000     -73.50240000
