40
Properties=species:S:1:pos:R:3 #=T CELL(abcABC):=T 1.889726e+02=T 90.00000=T Traj:=T positionsangstrom=T Step:=T 0=T Bead:=T pbc="F F F"
C      -46.75440000     -34.17030000     -74.08480000
C      -45.46390000     -34.66320000     -74.29820000
C      -44.33990000     -33.82830000     -74.51900000
C      -44.48610000     -32.45160000     -74.46590000
C      -45.78660000     -31.94960000     -74.26670000
C      -46.87960000     -32.76570000     -74.05970000
H      -47.64950000     -34.71390000     -73.87540000
H      -43.30670000     -34.18110000     -74.48000000
H      -46.03310000     -30.91450000     -74.25900000
H      -47.84790000     -32.33220000     -73.88470000
C      -43.27620000     -31.48970000     -74.55140000
H      -43.74640000     -30.44810000     -74.79050000
H      -42.57920000     -31.56340000     -75.38970000
C      -45.12380000     -36.14000000     -74.21310000
H      -45.99240000     -36.78170000     -74.35830000
H      -44.41480000     -36.54130000     -74.92740000
S      -42.37130000     -31.46570000     -72.96900000
S      -44.33530000     -36.50130000     -72.51820000
C      -43.80490000     -31.04020000     -71.89720000
H      -43.58340000     -30.09300000     -71.29570000
H      -44.73700000     -30.99490000     -72.49110000
C      -45.62970000     -35.71590000     -71.34940000
H      -46.65380000     -36.15590000     -71.33240000
H      -45.87500000     -34.71780000     -71.77990000
C      -44.94790000     -35.65190000     -70.07390000
H      -44.98480000     -36.67020000     -69.69550000
H      -43.93350000     -35.38140000     -70.31700000
C      -44.12390000     -32.35080000     -71.06640000
H      -43.20230000     -32.78300000     -70.57520000
H      -44.53740000     -33.07260000     -71.72740000
C      -45.14960000     -32.21250000     -69.89090000
C      -45.64690000     -31.00090000     -69.47400000
C      -45.73960000     -33.33480000     -69.12220000
H      -45.56400000     -30.03360000     -69.96160000
C      -46.71600000     -32.82110000     -68.25010000
C      -45.66900000     -34.79670000     -69.06450000
C      -46.55110000     -35.34570000     -68.17680000
S      -46.94200000     -31.04840000     -68.26340000
S      -47.50230000     -34.10120000     -67.29190000
H      -46.68430000     -36.30460000     -67.84990000
