40
Properties=species:S:1:pos:R:3 #=T CELL(abcABC):=T 1.889726e+02=T 90.00000=T Traj:=T positionsangstrom=T Step:=T 0=T Bead:=T pbc="F F F"
C      -44.50460000     -35.49260000     -70.38700000
C      -45.79870000     -35.88340000     -70.74620000
C      -46.87840000     -35.17470000     -70.29690000
C      -46.69050000     -34.07600000     -69.38130000
C      -45.39280000     -33.75430000     -68.95930000
C      -44.28370000     -34.48660000     -69.45860000
H      -43.78540000     -36.06280000     -70.97720000
H      -47.92150000     -35.46720000     -70.49380000
H      -45.24340000     -32.86610000     -68.38390000
H      -43.21410000     -34.30160000     -69.19820000
C      -47.94300000     -33.31940000     -68.84980000
H      -47.95930000     -33.62910000     -67.80530000
H      -48.80650000     -33.68140000     -69.39680000
C      -46.06550000     -37.01060000     -71.71960000
H      -45.59420000     -37.96340000     -71.55380000
H      -47.13950000     -37.18140000     -71.67990000
S      -47.88840000     -31.41300000     -69.08460000
S      -45.78550000     -36.56070000     -73.58900000
C      -47.91430000     -30.93210000     -70.88180000
H      -48.95180000     -31.11960000     -71.25900000
H      -47.87360000     -29.84830000     -70.98700000
C      -46.54420000     -34.90990000     -73.77040000
H      -47.23250000     -34.70650000     -72.95620000
H      -47.25530000     -34.97800000     -74.63470000
C      -45.64720000     -33.74040000     -74.06930000
H      -45.32340000     -33.95940000     -75.05320000
H      -46.21670000     -32.81030000     -74.05390000
C      -46.98160000     -31.70620000     -71.77900000
H      -47.32720000     -31.51740000     -72.79030000
H      -47.22690000     -32.74580000     -71.72800000
C      -45.47280000     -31.52590000     -71.57190000
C      -44.92100000     -30.63280000     -70.67310000
C      -44.45800000     -32.38930000     -72.11610000
H      -45.39240000     -29.89830000     -70.03060000
C      -43.23570000     -32.16560000     -71.57840000
C      -44.46350000     -33.40910000     -73.18030000
C      -43.16930000     -33.89390000     -73.31760000
S      -43.18170000     -30.86540000     -70.40450000
S      -41.94190000     -33.12460000     -72.24290000
H      -42.77570000     -34.56820000     -74.10200000
