40
Properties=species:S:1:pos:R:3 #=T CELL(abcABC):=T 1.889726e+02=T 90.00000=T Traj:=T positionsangstrom=T Step:=T 0=T Bead:=T pbc="F F F"
C      -44.64980000     -35.52260000     -70.27510000
C      -45.98140000     -35.82230000     -70.69000000
C      -47.03620000     -35.21490000     -69.91560000
C      -46.80040000     -34.20750000     -68.99330000
C      -45.51020000     -33.90150000     -68.67130000
C      -44.47520000     -34.60490000     -69.28730000
H      -43.84350000     -36.05830000     -70.76050000
H      -48.10240000     -35.52250000     -70.06400000
H      -45.30720000     -33.03450000     -67.96010000
H      -43.45290000     -34.25250000     -69.06530000
C      -47.95440000     -33.40320000     -68.41920000
H      -48.04280000     -33.29730000     -67.34010000
H      -48.94660000     -33.74550000     -68.88340000
C      -46.21100000     -36.88710000     -71.79060000
H      -45.67750000     -37.77400000     -71.42370000
H      -47.24470000     -37.20340000     -71.95480000
S      -47.67900000     -31.59570000     -68.76760000
S      -45.31950000     -36.35860000     -73.29640000
C      -47.96210000     -31.30570000     -70.57620000
H      -48.95600000     -31.60440000     -70.72230000
H      -47.87810000     -30.16730000     -70.69530000
C      -46.40300000     -34.89300000     -73.67450000
H      -46.88510000     -34.59460000     -72.70120000
H      -47.24760000     -35.16060000     -74.31170000
C      -45.61320000     -33.72080000     -74.36690000
H      -45.17950000     -34.01210000     -75.32950000
H      -46.28980000     -32.92380000     -74.62010000
C      -47.05670000     -32.01090000     -71.62100000
H      -47.35440000     -31.78070000     -72.67020000
H      -47.14460000     -33.08380000     -71.52900000
C      -45.55380000     -31.71410000     -71.58340000
C      -45.01790000     -30.89640000     -70.63010000
C      -44.57160000     -32.32660000     -72.43650000
H      -45.59510000     -30.41810000     -69.88620000
C      -43.26850000     -32.06200000     -71.90010000
C      -44.49800000     -33.23980000     -73.55670000
C      -43.21130000     -33.58150000     -73.92930000
S      -43.25380000     -30.93770000     -70.54320000
S      -41.99120000     -32.71590000     -72.95060000
H      -42.92070000     -34.31300000     -74.63110000
