40
Properties=species:S:1:pos:R:3 #=T CELL(abcABC):=T 1.889726e+02=T 90.00000=T Traj:=T positionsangstrom=T Step:=T 0=T Bead:=T pbc="F F F"
C      -48.02330000     -29.84440000     -70.65340000
C      -46.66150000     -30.22540000     -70.81800000
C      -46.13500000     -31.07080000     -69.83770000
C      -46.82610000     -31.45010000     -68.69820000
C      -48.17500000     -31.07130000     -68.58050000
C      -48.76750000     -30.27080000     -69.52610000
H      -48.45660000     -29.16610000     -71.34820000
H      -45.07400000     -31.28200000     -69.80820000
H      -48.72530000     -31.28430000     -67.70740000
H      -49.86140000     -30.03440000     -69.38970000
C      -46.22240000     -32.44020000     -67.76330000
H      -46.21480000     -32.15790000     -66.69430000
H      -45.10330000     -32.60620000     -68.01220000
C      -45.75500000     -29.56760000     -71.88530000
H      -45.92260000     -28.47980000     -72.01260000
H      -44.65140000     -29.78670000     -71.68190000
S      -46.92890000     -34.19360000     -67.84070000
S      -46.08860000     -30.29800000     -73.66360000
C      -45.78910000     -35.01330000     -69.05420000
H      -44.71760000     -34.84330000     -68.77780000
H      -46.05610000     -36.11870000     -68.95520000
C      -44.70130000     -31.57510000     -73.87010000
H      -43.69490000     -31.17380000     -73.83840000
H      -44.91970000     -32.10990000     -74.80740000
C      -44.82400000     -32.65000000     -72.79920000
H      -44.50730000     -32.00860000     -71.92130000
H      -45.80550000     -32.92400000     -72.60340000
C      -45.93440000     -34.67530000     -70.49240000
H      -45.56830000     -33.72360000     -70.77770000
H      -46.93890000     -34.57180000     -70.92920000
C      -45.17600000     -35.66770000     -71.38370000
C      -44.98890000     -37.01630000     -71.26790000
C      -44.19840000     -35.13560000     -72.34160000
H      -45.58940000     -37.69490000     -70.70350000
C      -43.27210000     -36.09190000     -72.77260000
C      -43.92440000     -33.83630000     -72.95090000
C      -42.79870000     -33.84470000     -73.76690000
S      -43.49190000     -37.67800000     -72.06710000
S      -41.95720000     -35.44910000     -73.75040000
H      -42.41680000     -33.01260000     -74.40450000
