40
Properties=species:S:1:pos:R:3 #=T CELL(abcABC):=T 1.889726e+02=T 90.00000=T Traj:=T positionsangstrom=T Step:=T 0=T Bead:=T pbc="F F F"
C      -44.51150000     -35.99630000     -69.79910000
C      -45.65490000     -36.20120000     -70.56370000
C      -46.89430000     -35.57490000     -70.26310000
C      -46.81370000     -34.56420000     -69.29610000
C      -45.66120000     -34.36240000     -68.49950000
C      -44.52600000     -35.11300000     -68.73740000
H      -43.62550000     -36.40920000     -70.13700000
H      -47.78700000     -35.76870000     -70.89850000
H      -45.63120000     -33.54070000     -67.85780000
H      -43.67700000     -34.96470000     -68.05160000
C      -48.04180000     -33.68810000     -68.93610000
H      -48.49040000     -33.98660000     -67.92930000
H      -48.83980000     -33.77020000     -69.74170000
C      -45.40230000     -37.09230000     -71.78290000
H      -44.48070000     -37.66950000     -71.66110000
H      -46.32960000     -37.63460000     -72.17530000
S      -47.62860000     -31.91800000     -68.54070000
S      -44.90860000     -35.85930000     -73.13550000
C      -47.80350000     -31.09820000     -70.18710000
H      -48.86060000     -30.81480000     -70.39620000
H      -47.16120000     -30.20890000     -70.07720000
C      -46.49490000     -34.86160000     -73.42690000
H      -46.95080000     -34.60660000     -72.42000000
H      -47.25040000     -35.47820000     -73.97480000
C      -46.11960000     -33.53720000     -74.18060000
H      -45.90460000     -33.87940000     -75.21350000
H      -47.05120000     -32.97610000     -74.23380000
C      -47.17600000     -31.85400000     -71.35740000
H      -47.53930000     -31.38340000     -72.30450000
H      -47.43320000     -32.89380000     -71.39520000
C      -45.60360000     -31.80100000     -71.35510000
C      -44.85290000     -31.31970000     -70.27050000
C      -44.71960000     -32.15790000     -72.44410000
H      -45.30820000     -30.82560000     -69.32560000
C      -43.37700000     -31.79640000     -72.18450000
C      -44.90090000     -32.77510000     -73.69160000
C      -43.74260000     -32.80730000     -74.49710000
S      -43.13580000     -31.08490000     -70.65750000
S      -42.37740000     -32.22980000     -73.57980000
H      -43.67970000     -33.22800000     -75.50430000
