40
Properties=species:S:1:pos:R:3 #=T CELL(abcABC):=T 1.889726e+02=T 90.00000=T Traj:=T positionsangstrom=T Step:=T 0=T Bead:=T pbc="F F F"
C      -44.43820000     -35.87910000     -69.73610000
C      -45.63170000     -35.95540000     -70.49060000
C      -46.77490000     -35.28470000     -70.06000000
C      -46.74590000     -34.39470000     -68.97620000
C      -45.49130000     -34.15400000     -68.35960000
C      -44.39460000     -34.90500000     -68.68340000
H      -43.47600000     -36.39100000     -69.90670000
H      -47.65090000     -35.47220000     -70.64430000
H      -45.51120000     -33.27730000     -67.73800000
H      -43.43270000     -34.86810000     -68.11760000
C      -48.01300000     -33.64010000     -68.56650000
H      -48.32250000     -33.90230000     -67.54610000
H      -48.88880000     -33.92300000     -69.17710000
C      -45.79660000     -36.83520000     -71.71590000
H      -45.15420000     -37.70060000     -71.65630000
H      -46.80050000     -37.11680000     -71.90730000
S      -47.81980000     -31.79220000     -68.59220000
S      -45.34150000     -36.07570000     -73.44650000
C      -47.87110000     -31.48410000     -70.50390000
H      -48.88330000     -31.74840000     -70.82430000
H      -47.69150000     -30.47450000     -70.71300000
C      -46.61460000     -34.71770000     -73.56710000
H      -47.08600000     -34.50080000     -72.61870000
H      -47.40690000     -35.14480000     -74.24120000
C      -45.94950000     -33.56500000     -74.27320000
H      -45.67400000     -33.94430000     -75.29650000
H      -46.53580000     -32.69670000     -74.48770000
C      -46.93800000     -32.34100000     -71.37350000
H      -47.30520000     -32.23990000     -72.39670000
H      -47.01440000     -33.42500000     -71.14210000
C      -45.48780000     -31.92110000     -71.36400000
C      -44.91810000     -31.17610000     -70.42040000
C      -44.58290000     -32.26440000     -72.44860000
H      -45.29530000     -30.84400000     -69.52510000
C      -43.32910000     -31.84580000     -72.21110000
C      -44.65690000     -33.02090000     -73.68200000
C      -43.52990000     -33.00190000     -74.40570000
S      -43.11580000     -31.05810000     -70.59430000
S      -42.21290000     -32.21430000     -73.51650000
H      -43.37510000     -33.38920000     -75.41420000
