40
Properties=species:S:1:pos:R:3 #=T CELL(abcABC):=T 1.889726e+02=T 90.00000=T Traj:=T positionsangstrom=T Step:=T 0=T Bead:=T pbc="F F F"
C      -44.47550000     -35.92440000     -69.72000000
C      -45.63650000     -36.10910000     -70.51070000
C      -46.83540000     -35.45210000     -70.17090000
C      -46.85200000     -34.48920000     -69.16020000
C      -45.68250000     -34.26590000     -68.35730000
C      -44.48680000     -34.97410000     -68.66490000
H      -43.66820000     -36.56930000     -69.93770000
H      -47.65370000     -35.68960000     -70.82810000
H      -45.61040000     -33.56020000     -67.55760000
H      -43.60620000     -34.78370000     -68.09690000
C      -48.06600000     -33.68610000     -68.89710000
H      -48.52360000     -34.15630000     -68.03280000
H      -48.76360000     -33.79310000     -69.71620000
C      -45.61470000     -36.92000000     -71.76530000
H      -44.96400000     -37.76700000     -71.67150000
H      -46.62820000     -37.27880000     -71.91420000
S      -47.64890000     -31.91090000     -68.56390000
S      -44.96300000     -35.95940000     -73.20130000
C      -47.78440000     -31.19480000     -70.18540000
H      -48.82910000     -31.10880000     -70.48830000
H      -47.52580000     -30.15300000     -70.04030000
C      -46.31340000     -34.81770000     -73.43640000
H      -46.65660000     -34.54820000     -72.41160000
H      -47.11990000     -35.24780000     -73.94830000
C      -46.14060000     -33.53430000     -74.22860000
H      -45.88650000     -33.78180000     -75.24000000
H      -47.06060000     -32.90990000     -74.12780000
C      -47.10190000     -31.88250000     -71.33530000
H      -47.56850000     -31.45170000     -72.26830000
H      -47.43700000     -32.90690000     -71.32580000
C      -45.59690000     -31.76260000     -71.39070000
C      -44.75760000     -31.26460000     -70.37350000
C      -44.77260000     -32.20070000     -72.42970000
H      -45.17300000     -30.97520000     -69.36740000
C      -43.38330000     -31.99690000     -72.21180000
C      -44.94130000     -32.82040000     -73.69130000
C      -43.76610000     -32.95250000     -74.42900000
S      -43.01590000     -31.26150000     -70.67260000
S      -42.44200000     -32.08730000     -73.69720000
H      -43.76260000     -33.51630000     -75.40990000
