40
Properties=species:S:1:pos:R:3 #=T CELL(abcABC):=T 1.889726e+02=T 90.00000=T Traj:=T positionsangstrom=T Step:=T 0=T Bead:=T pbc="F F F"
C      -43.83930000     -35.65240000     -70.67000000
C      -45.16740000     -36.06900000     -70.94160000
C      -46.20000000     -35.51670000     -70.19830000
C      -46.01310000     -34.43040000     -69.32810000
C      -44.73910000     -34.03720000     -69.03640000
C      -43.67680000     -34.68200000     -69.70330000
H      -43.03110000     -36.09670000     -71.15040000
H      -47.26930000     -35.79170000     -70.34900000
H      -44.48330000     -33.20160000     -68.32760000
H      -42.64390000     -34.40540000     -69.57970000
C      -47.31000000     -33.86870000     -68.78140000
H      -47.74460000     -34.41780000     -67.95010000
H      -48.08660000     -33.91480000     -69.49680000
C      -45.39970000     -37.02800000     -72.03500000
H      -44.72400000     -37.84820000     -72.07690000
H      -46.35740000     -37.59160000     -71.89670000
S      -47.22940000     -32.06540000     -68.36900000
S      -45.38440000     -36.22830000     -73.67850000
C      -48.12930000     -31.47360000     -69.84710000
H      -49.16560000     -31.79750000     -69.93180000
H      -48.03160000     -30.35200000     -69.78140000
C      -46.80890000     -35.04140000     -73.53460000
H      -47.10490000     -35.04370000     -72.48740000
H      -47.68520000     -35.31680000     -74.09280000
C      -46.39040000     -33.56760000     -73.96140000
H      -46.21020000     -33.50900000     -75.04020000
H      -47.27440000     -32.89250000     -73.76750000
C      -47.47210000     -31.77840000     -71.16990000
H      -48.12210000     -31.21020000     -71.83510000
H      -47.62240000     -32.83590000     -71.47310000
C      -46.02490000     -31.48870000     -71.27020000
C      -45.30910000     -30.66320000     -70.43420000
C      -45.08890000     -32.16120000     -72.20260000
H      -45.79510000     -30.09150000     -69.62880000
C      -43.77230000     -31.79800000     -71.86980000
C      -45.17940000     -32.99060000     -73.34600000
C      -43.92220000     -33.29000000     -73.90850000
S      -43.57290000     -30.61610000     -70.57040000
S      -42.59030000     -32.57540000     -72.99830000
H      -43.61510000     -33.88690000     -74.76760000
