40
Properties=species:S:1:pos:R:3 #=T CELL(abcABC):=T 1.889726e+02=T 90.00000=T Traj:=T positionsangstrom=T Step:=T 0=T Bead:=T pbc="F F F"
C      -43.83190000     -35.15250000     -70.76030000
C      -45.05880000     -35.78760000     -71.10340000
C      -46.19610000     -35.35880000     -70.38550000
C      -46.16240000     -34.44700000     -69.31320000
C      -44.88340000     -34.02380000     -68.88930000
C      -43.77620000     -34.34390000     -69.61170000
H      -42.89030000     -35.46080000     -71.25490000
H      -47.08800000     -35.94740000     -70.65160000
H      -44.70050000     -33.34830000     -68.01260000
H      -42.81080000     -33.96170000     -69.22700000
C      -47.49070000     -33.97930000     -68.76290000
H      -47.75140000     -34.45810000     -67.86290000
H      -48.21420000     -34.21150000     -69.55320000
C      -45.20050000     -36.81530000     -72.24020000
H      -44.20030000     -37.36270000     -72.30200000
H      -46.00590000     -37.52520000     -71.98430000
S      -47.50160000     -32.12550000     -68.42270000
S      -45.68250000     -36.26350000     -73.96380000
C      -48.10070000     -31.35490000     -70.05450000
H      -49.21380000     -31.59860000     -70.14110000
H      -48.16460000     -30.28130000     -69.75320000
C      -46.92740000     -34.89600000     -73.67320000
H      -47.24080000     -35.01900000     -72.63050000
H      -47.66910000     -35.01630000     -74.36950000
C      -46.31730000     -33.54500000     -73.92800000
H      -46.02660000     -33.42080000     -75.01480000
H      -47.04060000     -32.73570000     -73.75850000
C      -47.33360000     -31.78360000     -71.28760000
H      -47.70860000     -31.31520000     -72.23160000
H      -47.32120000     -32.84080000     -71.49160000
C      -45.87010000     -31.45530000     -71.23870000
C      -45.23220000     -30.72950000     -70.33800000
C      -44.91310000     -32.14100000     -72.15640000
H      -45.57280000     -30.00570000     -69.61760000
C      -43.56690000     -31.94250000     -71.75190000
C      -45.03770000     -33.17330000     -73.22470000
C      -43.75880000     -33.53760000     -73.55500000
S      -43.49370000     -30.70940000     -70.49890000
S      -42.45300000     -32.83220000     -72.69860000
H      -43.44680000     -34.27410000     -74.36910000
