40
Properties=species:S:1:pos:R:3 #=T CELL(abcABC):=T 1.889726e+02=T 90.00000=T Traj:=T positionsangstrom=T Step:=T 0=T Bead:=T pbc="F F F"
C      -43.96560000     -35.24650000     -70.81680000
C      -45.18210000     -36.02040000     -70.82210000
C      -46.15290000     -35.67450000     -69.90480000
C      -45.83630000     -34.73240000     -68.83930000
C      -44.60430000     -34.11520000     -68.78300000
C      -43.65370000     -34.36430000     -69.83550000
H      -43.19770000     -35.39530000     -71.55900000
H      -47.14490000     -36.08350000     -69.91020000
H      -44.37330000     -33.41660000     -67.99020000
H      -42.64730000     -33.87120000     -69.67790000
C      -46.93040000     -34.25400000     -67.93850000
H      -46.72770000     -34.49140000     -66.91710000
H      -47.91110000     -34.74390000     -68.17600000
C      -45.57450000     -36.94620000     -71.97260000
H      -44.84280000     -37.81710000     -71.95000000
H      -46.55010000     -37.30210000     -71.79140000
S      -47.31130000     -32.35730000     -67.96510000
S      -45.46000000     -35.99850000     -73.60000000
C      -47.95860000     -31.93520000     -69.70010000
H      -48.96220000     -32.35900000     -69.85870000
H      -48.09040000     -30.88620000     -69.60520000
C      -46.90790000     -34.86450000     -73.35560000
H      -47.06750000     -34.56370000     -72.33800000
H      -47.88210000     -35.27290000     -73.70380000
C      -46.62720000     -33.46990000     -74.03950000
H      -46.55180000     -33.55450000     -75.13040000
H      -47.38740000     -32.70670000     -73.90010000
C      -47.15270000     -32.48610000     -70.96480000
H      -47.63660000     -32.28340000     -71.93760000
H      -47.20360000     -33.53220000     -70.77900000
C      -45.69100000     -32.02860000     -71.10880000
C      -45.02120000     -31.22790000     -70.20820000
C      -45.02200000     -32.12250000     -72.33660000
H      -45.27690000     -31.01190000     -69.20630000
C      -43.78090000     -31.51190000     -72.35260000
C      -45.32870000     -32.85510000     -73.55850000
C      -44.24990000     -32.92300000     -74.43770000
S      -43.51170000     -30.60640000     -70.89200000
S      -42.84140000     -31.98140000     -73.75080000
H      -44.03110000     -33.35150000     -75.43480000
