40
Properties=species:S:1:pos:R:3 #=T CELL(abcABC):=T 1.889726e+02=T 90.00000=T Traj:=T positionsangstrom=T Step:=T 0=T Bead:=T pbc="F F F"
C      -42.01110000     -31.91010000     -72.36360000
C      -42.12670000     -32.92700000     -71.39120000
C      -42.66830000     -32.57690000     -70.16660000
C      -43.24120000     -31.32840000     -69.94290000
C      -43.25390000     -30.34210000     -70.94730000
C      -42.80120000     -30.72190000     -72.19380000
H      -41.59180000     -32.13050000     -73.35160000
H      -42.84940000     -33.37410000     -69.42630000
H      -43.51580000     -29.28710000     -70.74110000
H      -42.70730000     -29.86790000     -72.89360000
C      -43.70290000     -30.81290000     -68.63420000
H      -43.98430000     -29.82130000     -68.76490000
H      -42.90090000     -30.79520000     -67.85940000
C      -41.57530000     -34.21170000     -71.63060000
H      -40.64410000     -34.09840000     -72.27300000
H      -41.17910000     -34.65830000     -70.75870000
S      -45.06350000     -31.79210000     -67.88640000
S      -42.80590000     -35.38810000     -72.51290000
C      -46.03260000     -31.99300000     -69.47970000
H      -46.42740000     -31.01100000     -69.79530000
H      -45.35780000     -32.36760000     -70.29730000
C      -43.83910000     -35.90610000     -71.05560000
H      -43.17240000     -36.09890000     -70.25640000
H      -44.14780000     -36.93240000     -71.22170000
C      -45.04080000     -35.04730000     -70.76730000
H      -45.65190000     -35.51540000     -69.99040000
H      -44.71920000     -34.06960000     -70.42460000
C      -47.14530000     -33.00620000     -69.34160000
H      -47.86070000     -32.70630000     -68.58340000
H      -46.67510000     -33.99070000     -69.17730000
C      -47.72180000     -33.17940000     -70.70210000
C      -48.97190000     -32.73820000     -71.08100000
C      -47.23170000     -34.09960000     -71.73340000
H      -49.49830000     -31.89350000     -70.56080000
C      -48.09820000     -34.32840000     -72.82300000
C      -46.06860000     -34.90820000     -71.88770000
C      -45.90830000     -35.52380000     -73.07970000
S      -49.54260000     -33.26700000     -72.71130000
S      -47.39430000     -35.25600000     -74.06870000
H      -45.22730000     -36.26840000     -73.48060000
