40
Properties=species:S:1:pos:R:3 #=T CELL(abcABC):=T 1.889726e+02=T 90.00000=T Traj:=T positionsangstrom=T Step:=T 0=T Bead:=T pbc="F F F"
C      -42.39150000     -31.86780000     -72.41430000
C      -42.23300000     -32.79910000     -71.37630000
C      -42.59930000     -32.37950000     -70.10320000
C      -43.19020000     -31.11150000     -69.90230000
C      -43.17320000     -30.13680000     -70.97330000
C      -42.69470000     -30.49990000     -72.26720000
H      -42.16840000     -32.26840000     -73.40210000
H      -42.43030000     -32.99440000     -69.16180000
H      -43.68800000     -29.25880000     -70.87200000
H      -42.88760000     -29.76650000     -73.05110000
C      -43.75030000     -30.78730000     -68.50020000
H      -44.18630000     -29.71530000     -68.51680000
H      -42.91490000     -30.75570000     -67.78990000
C      -41.67440000     -34.19380000     -71.55180000
H      -40.74340000     -34.09730000     -72.12270000
H      -41.42890000     -34.52240000     -70.54580000
S      -45.03140000     -31.97570000     -67.96510000
S      -42.65610000     -35.46610000     -72.37200000
C      -46.13660000     -31.90010000     -69.32080000
H      -46.62860000     -30.92750000     -69.25840000
H      -45.61550000     -31.88910000     -70.30750000
C      -43.79840000     -36.10480000     -71.08320000
H      -43.18470000     -36.17420000     -70.06890000
H      -44.13060000     -37.07540000     -71.48690000
C      -44.97440000     -35.08620000     -70.80430000
H      -45.26300000     -35.30090000     -69.77010000
H      -44.51080000     -34.11200000     -70.67820000
C      -47.24930000     -32.94790000     -69.35460000
H      -48.12770000     -32.65720000     -68.73850000
H      -47.03120000     -33.92950000     -68.95090000
C      -47.75500000     -33.18660000     -70.74590000
C      -48.99690000     -32.72700000     -71.20320000
C      -47.14560000     -34.06450000     -71.76920000
H      -49.66730000     -32.20710000     -70.53110000
C      -47.94240000     -34.16490000     -72.92140000
C      -46.06160000     -35.05330000     -71.85720000
C      -46.00550000     -35.72030000     -73.03760000
S      -49.48110000     -33.21090000     -72.84440000
S      -47.45370000     -35.38310000     -74.04880000
H      -45.38330000     -36.54130000     -73.39800000
