40
Properties=species:S:1:pos:R:3 #=T CELL(abcABC):=T 1.889726e+02=T 90.00000=T Traj:=T positionsangstrom=T Step:=T 0=T Bead:=T pbc="F F F"
C      -42.22550000     -32.27590000     -72.49940000
C      -42.11660000     -33.12930000     -71.36520000
C      -42.40660000     -32.68550000     -70.07610000
C      -42.89940000     -31.35580000     -69.88800000
C      -42.81500000     -30.49310000     -70.96020000
C      -42.52670000     -30.92900000     -72.25500000
H      -41.81860000     -32.56330000     -73.43740000
H      -42.20930000     -33.37670000     -69.30500000
H      -43.02440000     -29.39860000     -70.74590000
H      -42.53090000     -30.22610000     -73.07330000
C      -43.42250000     -30.75200000     -68.61550000
H      -43.58370000     -29.62760000     -68.64450000
H      -42.70740000     -30.93040000     -67.79590000
C      -41.61510000     -34.55070000     -71.44000000
H      -40.74590000     -34.57560000     -72.08000000
H      -41.35040000     -34.84790000     -70.39570000
S      -44.94140000     -31.62220000     -68.02200000
S      -42.69390000     -35.70820000     -72.39630000
C      -45.97560000     -31.75340000     -69.54590000
H      -46.52300000     -30.79200000     -69.69580000
H      -45.29280000     -31.85160000     -70.41400000
C      -44.09590000     -36.10960000     -71.22170000
H      -43.53970000     -36.42530000     -70.37990000
H      -44.55420000     -36.90250000     -71.69360000
C      -44.96500000     -34.83290000     -71.03200000
H      -45.45040000     -34.90370000     -70.03140000
H      -44.23810000     -34.10140000     -70.89180000
C      -47.08380000     -32.87500000     -69.39030000
H      -47.78980000     -32.52810000     -68.60790000
H      -46.58450000     -33.66790000     -68.91650000
C      -47.83250000     -33.19830000     -70.68580000
C      -49.17660000     -32.81160000     -70.84480000
C      -47.28080000     -33.86690000     -71.80660000
H      -49.74890000     -32.13130000     -70.21370000
C      -48.22420000     -33.96280000     -72.87170000
C      -46.06730000     -34.64270000     -72.08500000
C      -46.13930000     -35.30390000     -73.23340000
S      -49.76700000     -33.34180000     -72.40530000
S      -47.65150000     -35.04670000     -74.12990000
H      -45.34430000     -35.93000000     -73.62100000
