40
Properties=species:S:1:pos:R:3 #=T CELL(abcABC):=T 1.889726e+02=T 90.00000=T Traj:=T positionsangstrom=T Step:=T 0=T Bead:=T pbc="F F F"
C      -41.81530000     -32.54850000     -72.46050000
C      -41.86030000     -33.25520000     -71.20770000
C      -42.41850000     -32.60380000     -70.10140000
C      -42.95840000     -31.28790000     -70.20260000
C      -43.02610000     -30.69780000     -71.46870000
C      -42.45210000     -31.32820000     -72.60430000
H      -41.43270000     -33.04230000     -73.34770000
H      -42.55170000     -33.02380000     -69.09440000
H      -43.64340000     -29.87840000     -71.67600000
H      -42.45990000     -30.75650000     -73.55310000
C      -43.59760000     -30.67410000     -68.97380000
H      -44.03340000     -29.74800000     -69.33830000
H      -42.79950000     -30.28340000     -68.29660000
C      -41.43390000     -34.75290000     -71.19380000
H      -40.44170000     -34.81590000     -71.66530000
H      -41.47170000     -35.26310000     -70.19330000
S      -44.86130000     -31.78750000     -68.10250000
S      -42.61820000     -35.71880000     -72.27710000
C      -45.95890000     -31.89070000     -69.46690000
H      -46.38060000     -30.89290000     -69.66280000
H      -45.59830000     -32.12030000     -70.48950000
C      -44.05850000     -36.04120000     -71.26070000
H      -43.66580000     -36.44080000     -70.35050000
H      -44.60530000     -36.83320000     -71.74680000
C      -45.07190000     -34.89760000     -70.88710000
H      -45.48650000     -35.32050000     -70.01610000
H      -44.79430000     -33.81210000     -70.64520000
C      -47.09930000     -32.92300000     -69.27760000
H      -47.71670000     -32.63480000     -68.41490000
H      -46.59650000     -33.87910000     -68.95350000
C      -47.87350000     -33.10540000     -70.51220000
C      -49.06190000     -32.46340000     -70.81850000
C      -47.42370000     -33.96490000     -71.67890000
H      -49.56270000     -31.82920000     -70.09010000
C      -48.32880000     -33.93250000     -72.76080000
C      -46.19060000     -34.76460000     -71.92660000
C      -46.33200000     -35.34090000     -73.15720000
S      -49.68680000     -32.79710000     -72.42050000
S      -47.79710000     -35.00520000     -74.06430000
H      -45.56570000     -36.00400000     -73.54200000
