40
Properties=species:S:1:pos:R:3 #=T CELL(abcABC):=T 1.889726e+02=T 90.00000=T Traj:=T positionsangstrom=T Step:=T 0=T Bead:=T pbc="F F F"
C      -48.11600000     -29.78570000     -71.06340000
C      -46.68920000     -29.93640000     -70.94580000
C      -46.22520000     -30.80720000     -69.97440000
C      -47.04580000     -31.54900000     -69.10070000
C      -48.41760000     -31.47550000     -69.33000000
C      -48.91860000     -30.55510000     -70.26760000
H      -48.58030000     -29.05190000     -71.76550000
H      -45.15640000     -30.86510000     -69.80280000
H      -49.11070000     -32.02100000     -68.71580000
H      -49.97350000     -30.43770000     -70.39590000
C      -46.35080000     -32.39320000     -68.03610000
H      -46.68610000     -31.91270000     -67.09230000
H      -45.29750000     -32.39200000     -68.23680000
C      -45.75930000     -29.25860000     -71.92290000
H      -46.17080000     -28.23720000     -72.21630000
H      -44.70650000     -29.17290000     -71.50850000
S      -47.03360000     -34.15380000     -67.84230000
S      -45.71270000     -30.14820000     -73.56130000
C      -45.90280000     -35.12650000     -68.94870000
H      -44.91940000     -34.92240000     -68.44120000
H      -46.17020000     -36.18090000     -68.67110000
C      -44.38150000     -31.44790000     -73.48970000
H      -43.32300000     -31.02680000     -73.56570000
H      -44.50000000     -31.97760000     -74.46080000
C      -44.60000000     -32.54990000     -72.41300000
H      -44.37920000     -32.11210000     -71.44170000
H      -45.68510000     -32.78680000     -72.30560000
C      -46.17070000     -34.91470000     -70.48070000
H      -46.11550000     -33.79190000     -70.62740000
H      -47.20790000     -35.22920000     -70.67680000
C      -45.08470000     -35.71860000     -71.20710000
C      -44.80690000     -37.03580000     -70.99450000
C      -44.11620000     -35.15640000     -72.09060000
H      -45.24740000     -37.75450000     -70.29280000
C      -43.19780000     -36.11110000     -72.53400000
C      -43.91700000     -33.87250000     -72.74550000
C      -42.77830000     -33.93530000     -73.49890000
S      -43.50260000     -37.72550000     -71.97330000
S      -42.05790000     -35.52340000     -73.73210000
H      -42.43450000     -33.08580000     -73.98810000
