40
Properties=species:S:1:pos:R:3 #=T CELL(abcABC):=T 1.889726e+02=T 90.00000=T Traj:=T positionsangstrom=T Step:=T 0=T Bead:=T pbc="F F F"
C      -41.98200000     -32.55580000     -72.54680000
C      -42.18540000     -33.30030000     -71.41970000
C      -42.59660000     -32.67660000     -70.24020000
C      -42.94320000     -31.29360000     -70.24010000
C      -42.78540000     -30.54390000     -71.43550000
C      -42.18460000     -31.16180000     -72.54150000
H      -41.64910000     -33.11410000     -73.40890000
H      -42.93980000     -33.26480000     -69.42330000
H      -43.09440000     -29.50820000     -71.54100000
H      -42.00300000     -30.62070000     -73.48330000
C      -43.46260000     -30.60270000     -69.03710000
H      -43.92360000     -29.58070000     -69.23080000
H      -42.75170000     -30.47200000     -68.22350000
C      -41.71340000     -34.72890000     -71.31440000
H      -40.70880000     -34.86710000     -71.75820000
H      -41.60980000     -35.12270000     -70.30380000
S      -44.77960000     -31.58780000     -68.20620000
S      -42.85570000     -35.85870000     -72.31010000
C      -46.02830000     -31.59940000     -69.56460000
H      -46.49040000     -30.56240000     -69.60180000
H      -45.57360000     -31.83580000     -70.55820000
C      -44.16680000     -36.32340000     -71.01370000
H      -43.69390000     -36.64140000     -70.06880000
H      -44.58180000     -37.29220000     -71.43900000
C      -45.15820000     -35.13080000     -70.65890000
H      -45.72610000     -35.45420000     -69.75120000
H      -44.63610000     -34.19630000     -70.40650000
C      -47.07750000     -32.75880000     -69.28540000
H      -47.72090000     -32.44120000     -68.37030000
H      -46.38630000     -33.51700000     -68.93720000
C      -47.87560000     -33.10120000     -70.47930000
C      -48.95830000     -32.40780000     -70.96420000
C      -47.45050000     -34.01870000     -71.49350000
H      -49.52330000     -31.59310000     -70.43860000
C      -48.27180000     -34.05940000     -72.64600000
C      -46.26050000     -34.86390000     -71.69300000
C      -46.24280000     -35.38170000     -72.95940000
S      -49.56150000     -32.91070000     -72.53740000
S      -47.63420000     -34.95420000     -73.99660000
H      -45.44800000     -35.97780000     -73.29020000
