40
Properties=species:S:1:pos:R:3 #=T CELL(abcABC):=T 1.889726e+02=T 90.00000=T Traj:=T positionsangstrom=T Step:=T 0=T Bead:=T pbc="F F F"
C      -41.85230000     -32.59880000     -72.50840000
C      -41.96320000     -33.27320000     -71.30400000
C      -42.56610000     -32.61540000     -70.16560000
C      -42.97090000     -31.29180000     -70.28940000
C      -42.93670000     -30.64700000     -71.50850000
C      -42.32900000     -31.28860000     -72.61730000
H      -41.36430000     -33.00960000     -73.39930000
H      -42.42310000     -33.14410000     -69.19710000
H      -43.28810000     -29.58950000     -71.48920000
H      -42.25410000     -30.70000000     -73.50130000
C      -43.54750000     -30.57550000     -69.09880000
H      -44.13280000     -29.72630000     -69.47720000
H      -42.84080000     -30.26040000     -68.34270000
C      -41.62520000     -34.76880000     -71.16510000
H      -40.59670000     -34.94440000     -71.47320000
H      -41.68630000     -35.14890000     -70.14520000
S      -44.74950000     -31.67800000     -68.08970000
S      -42.74630000     -35.72290000     -72.24170000
C      -46.07130000     -31.83350000     -69.41330000
H      -46.52750000     -30.86630000     -69.32010000
H      -45.62170000     -31.93050000     -70.37520000
C      -44.06250000     -36.27770000     -71.07360000
H      -43.50250000     -36.59530000     -70.19090000
H      -44.67140000     -37.15270000     -71.44300000
C      -45.10330000     -35.08120000     -70.85110000
H      -45.56140000     -35.13310000     -69.85620000
H      -44.41680000     -34.22070000     -70.78100000
C      -47.13760000     -32.89370000     -69.14400000
H      -47.84470000     -32.69570000     -68.35930000
H      -46.68240000     -33.80660000     -68.91640000
C      -47.83740000     -33.12340000     -70.53370000
C      -49.02500000     -32.44930000     -70.80250000
C      -47.32000000     -33.92130000     -71.66780000
H      -49.60550000     -31.70410000     -70.20350000
C      -48.18350000     -33.83320000     -72.74940000
C      -46.27770000     -34.88740000     -71.88390000
C      -46.40390000     -35.51950000     -73.11350000
S      -49.59720000     -32.81480000     -72.50530000
S      -47.77810000     -34.93360000     -74.08680000
H      -45.71980000     -36.17750000     -73.55860000
