40
Properties=species:S:1:pos:R:3 #=T CELL(abcABC):=T 1.889726e+02=T 90.00000=T Traj:=T positionsangstrom=T Step:=T 0=T Bead:=T pbc="F F F"
C      -42.18990000     -32.52190000     -72.63720000
C      -42.29130000     -33.32330000     -71.47570000
C      -42.63800000     -32.67300000     -70.27780000
C      -42.73280000     -31.29470000     -70.16220000
C      -42.58170000     -30.48560000     -71.25260000
C      -42.43820000     -31.15460000     -72.54120000
H      -41.99020000     -32.90970000     -73.64150000
H      -42.89330000     -33.36820000     -69.42090000
H      -42.57050000     -29.38630000     -71.18670000
H      -42.37840000     -30.52660000     -73.41020000
C      -43.09660000     -30.65550000     -68.86100000
H      -43.21580000     -29.57840000     -68.91410000
H      -42.40230000     -31.02000000     -68.04840000
C      -41.87660000     -34.82060000     -71.50790000
H      -40.98700000     -34.95540000     -72.12460000
H      -41.54480000     -35.22690000     -70.52740000
S      -44.86900000     -31.12280000     -68.26940000
S      -43.12110000     -35.95000000     -72.28710000
C      -45.79380000     -31.79070000     -69.73440000
H      -46.20610000     -31.07210000     -70.47220000
H      -44.95050000     -32.38030000     -70.16420000
C      -44.21890000     -36.31810000     -70.90900000
H      -43.67830000     -36.67360000     -69.99250000
H      -44.81880000     -37.19090000     -71.10580000
C      -45.20450000     -35.24020000     -70.58340000
H      -45.86240000     -35.46110000     -69.72610000
H      -44.59690000     -34.32350000     -70.15600000
C      -46.94700000     -32.63850000     -69.31050000
H      -47.54350000     -32.04050000     -68.69520000
H      -46.50730000     -33.47640000     -68.65680000
C      -47.77520000     -33.06210000     -70.54470000
C      -48.97340000     -32.48130000     -70.86460000
C      -47.31640000     -33.97790000     -71.60320000
H      -49.50810000     -31.84220000     -70.25470000
C      -48.18390000     -34.05110000     -72.71630000
C      -46.13330000     -34.85870000     -71.72080000
C      -46.21080000     -35.48490000     -72.93710000
S      -49.62820000     -33.05120000     -72.45640000
S      -47.52940000     -35.01290000     -74.01080000
H      -45.56210000     -36.31940000     -73.32580000
