40
Properties=species:S:1:pos:R:3 #=T CELL(abcABC):=T 1.889726e+02=T 90.00000=T Traj:=T positionsangstrom=T Step:=T 0=T Bead:=T pbc="F F F"
C      -43.22570000     -32.39720000     -71.10580000
C      -43.98210000     -31.29100000     -71.69270000
C      -44.63550000     -31.51460000     -72.88660000
C      -44.48140000     -32.82070000     -73.50510000
C      -43.69980000     -33.81140000     -72.95050000
C      -43.06000000     -33.58520000     -71.78190000
H      -42.64440000     -32.13090000     -70.23870000
H      -45.28550000     -30.78380000     -73.34260000
H      -43.51480000     -34.69040000     -73.44360000
H      -42.47650000     -34.41070000     -71.40840000
C      -45.12330000     -32.94820000     -74.86960000
H      -44.24350000     -33.08430000     -75.52900000
H      -45.68280000     -32.07950000     -75.15410000
C      -44.01210000     -29.93930000     -71.09670000
H      -42.99590000     -29.48900000     -71.18290000
H      -44.64970000     -29.33730000     -71.69170000
S      -46.14970000     -34.50660000     -74.96920000
S      -44.37020000     -29.90230000     -69.28530000
C      -47.65860000     -33.87900000     -74.01690000
H      -47.93190000     -32.98050000     -74.47980000
H      -48.44170000     -34.66220000     -74.10710000
C      -46.09330000     -30.48710000     -69.28090000
H      -46.66730000     -29.67820000     -69.67010000
H      -46.31710000     -30.65920000     -68.19310000
C      -46.44760000     -31.77780000     -69.97900000
H      -47.57670000     -31.73500000     -69.84520000
H      -46.29250000     -31.68290000     -71.06440000
C      -47.45150000     -33.50320000     -72.56490000
H      -48.39670000     -33.28350000     -72.07250000
H      -46.88490000     -32.60710000     -72.46740000
C      -46.67520000     -34.54870000     -71.67420000
C      -46.54560000     -35.85990000     -71.97290000
C      -46.12880000     -34.26400000     -70.34140000
H      -46.64670000     -36.35320000     -72.94660000
C      -45.57340000     -35.42620000     -69.78890000
C      -45.84170000     -33.11820000     -69.56170000
C      -45.08090000     -33.41400000     -68.41960000
S      -45.77700000     -36.86580000     -70.73900000
S      -44.68310000     -35.18830000     -68.31050000
H      -44.55210000     -32.68960000     -67.78480000
