40
Properties=species:S:1:pos:R:3 #=T CELL(abcABC):=T 1.889726e+02=T 90.00000=T Traj:=T positionsangstrom=T Step:=T 0=T Bead:=T pbc="F F F"
C      -43.23070000     -32.19440000     -71.20320000
C      -43.92190000     -31.17780000     -71.80860000
C      -44.43140000     -31.44760000     -73.14930000
C      -44.33970000     -32.78990000     -73.62330000
C      -43.66140000     -33.81790000     -72.94180000
C      -43.02260000     -33.50520000     -71.74300000
H      -42.95650000     -32.10410000     -70.10700000
H      -44.93650000     -30.71060000     -73.69250000
H      -43.39090000     -34.77870000     -73.36810000
H      -42.48180000     -34.19800000     -71.12210000
C      -44.98410000     -33.19380000     -74.97740000
H      -44.16460000     -33.38480000     -75.70390000
H      -45.62260000     -32.47960000     -75.51180000
C      -44.09890000     -29.82410000     -71.15220000
H      -43.18380000     -29.22390000     -71.37420000
H      -44.98150000     -29.25170000     -71.52890000
S      -46.14750000     -34.63800000     -74.90620000
S      -44.29370000     -29.82200000     -69.32940000
C      -47.68020000     -34.18640000     -73.96640000
H      -48.28470000     -33.57500000     -74.64520000
H      -48.26430000     -35.15650000     -73.85270000
C      -45.97550000     -30.60480000     -68.93360000
H      -46.74180000     -29.82930000     -68.82100000
H      -45.87930000     -31.01070000     -67.94300000
C      -46.54940000     -31.66530000     -69.86310000
H      -47.63740000     -31.77170000     -69.81500000
H      -46.30100000     -31.37350000     -70.84930000
C      -47.44370000     -33.58920000     -72.50760000
H      -48.44990000     -33.33450000     -72.16300000
H      -46.91850000     -32.59730000     -72.65210000
C      -46.78980000     -34.62050000     -71.61860000
C      -46.81400000     -35.93330000     -71.85130000
C      -46.07880000     -34.27380000     -70.39370000
H      -46.96500000     -36.37240000     -72.85380000
C      -45.47380000     -35.39870000     -69.82790000
C      -45.87830000     -33.05120000     -69.60950000
C      -45.30820000     -33.40610000     -68.42260000
S      -45.74170000     -36.86850000     -70.76410000
S      -44.77520000     -35.04990000     -68.29760000
H      -45.14600000     -32.75610000     -67.59560000
