40
Properties=species:S:1:pos:R:3 #=T CELL(abcABC):=T 1.889726e+02=T 90.00000=T Traj:=T positionsangstrom=T Step:=T 0=T Bead:=T pbc="F F F"
C      -43.08930000     -32.08330000     -71.26150000
C      -44.00010000     -31.24400000     -71.89220000
C      -44.64270000     -31.71420000     -73.06040000
C      -44.35810000     -32.93900000     -73.62360000
C      -43.51770000     -33.82900000     -72.96410000
C      -42.93060000     -33.41790000     -71.75480000
H      -42.45710000     -31.67600000     -70.43020000
H      -45.32160000     -31.01080000     -73.59680000
H      -43.51690000     -34.96250000     -73.25550000
H      -42.27830000     -34.04280000     -71.13370000
C      -45.04510000     -33.29600000     -74.89070000
H      -44.34950000     -33.33880000     -75.66280000
H      -45.72100000     -32.43340000     -75.18210000
C      -44.36860000     -29.83040000     -71.43240000
H      -43.72900000     -29.08710000     -71.82230000
H      -45.37800000     -29.53360000     -71.78300000
S      -46.12400000     -34.80040000     -74.76620000
S      -44.22570000     -29.77750000     -69.50890000
C      -47.61530000     -34.06330000     -74.01300000
H      -47.85470000     -33.17760000     -74.64990000
H      -48.40560000     -34.70730000     -74.26810000
C      -45.96840000     -30.39820000     -69.03740000
H      -46.56530000     -29.49450000     -69.12030000
H      -45.86310000     -30.58010000     -67.95850000
C      -46.47200000     -31.64370000     -69.75660000
H      -47.54690000     -31.70080000     -69.53460000
H      -46.56770000     -31.35030000     -70.83370000
C      -47.53650000     -33.57620000     -72.56550000
H      -48.51950000     -33.48590000     -72.13980000
H      -47.14330000     -32.53710000     -72.44780000
C      -46.78550000     -34.57780000     -71.59180000
C      -46.68490000     -35.88240000     -71.89700000
C      -46.19920000     -34.22340000     -70.31950000
H      -47.26720000     -36.36910000     -72.64020000
C      -45.63740000     -35.40680000     -69.71940000
C      -45.88250000     -33.04200000     -69.55000000
C      -45.12260000     -33.35730000     -68.45000000
S      -45.85950000     -36.85500000     -70.64050000
S      -44.65080000     -35.06170000     -68.29140000
H      -44.86730000     -32.57030000     -67.78160000
