40
Properties=species:S:1:pos:R:3 #=T CELL(abcABC):=T 1.889726e+02=T 90.00000=T Traj:=T positionsangstrom=T Step:=T 0=T Bead:=T pbc="F F F"
C      -42.13620000     -32.74680000     -72.43370000
C      -41.93910000     -33.36390000     -71.16600000
C      -42.25730000     -32.68120000     -69.97730000
C      -42.83110000     -31.40300000     -70.08190000
C      -43.02210000     -30.80970000     -71.34460000
C      -42.62520000     -31.48370000     -72.51930000
H      -41.89550000     -33.36700000     -73.23960000
H      -42.18800000     -33.08590000     -68.97000000
H      -43.51490000     -29.89330000     -71.44390000
H      -42.79770000     -31.02370000     -73.49040000
C      -43.21280000     -30.58560000     -68.89330000
H      -43.27060000     -29.51840000     -69.19980000
H      -42.52380000     -30.62810000     -68.00490000
C      -41.56240000     -34.77220000     -71.11700000
H      -40.54180000     -34.90280000     -71.55930000
H      -41.54540000     -35.28110000     -70.19590000
S      -44.80310000     -31.32210000     -68.15730000
S      -42.53610000     -35.84250000     -72.29500000
C      -45.96690000     -31.31530000     -69.70300000
H      -46.46160000     -30.31840000     -69.65110000
H      -45.39950000     -31.32460000     -70.61900000
C      -44.12870000     -36.11790000     -71.26630000
H      -43.64480000     -36.48450000     -70.34130000
H      -44.45090000     -37.02110000     -71.66160000
C      -44.98370000     -34.85950000     -71.17570000
H      -45.05480000     -34.71850000     -70.11860000
H      -44.44400000     -33.90120000     -71.43250000
C      -47.01220000     -32.45070000     -69.52600000
H      -47.79280000     -32.08670000     -68.77300000
H      -46.45580000     -33.25600000     -69.07740000
C      -47.71230000     -32.85120000     -70.76990000
C      -48.79840000     -32.17310000     -71.21050000
C      -47.41910000     -33.96060000     -71.62810000
H      -49.09530000     -31.21540000     -70.72430000
C      -48.34610000     -34.07880000     -72.68560000
C      -46.30900000     -34.85700000     -71.84560000
C      -46.51810000     -35.65850000     -72.92470000
S      -49.64940000     -32.86860000     -72.56950000
S      -48.09900000     -35.45350000     -73.70900000
H      -45.92890000     -36.51160000     -73.14210000
