40
Properties=species:S:1:pos:R:3 #=T CELL(abcABC):=T 1.889726e+02=T 90.00000=T Traj:=T positionsangstrom=T Step:=T 0=T Bead:=T pbc="F F F"
C      -42.12000000     -32.53410000     -72.55640000
C      -42.13850000     -33.29250000     -71.37690000
C      -42.47910000     -32.63970000     -70.15200000
C      -42.80690000     -31.31920000     -70.10040000
C      -42.75770000     -30.52830000     -71.26580000
C      -42.50370000     -31.15960000     -72.51630000
H      -41.82430000     -32.92100000     -73.56630000
H      -42.59870000     -33.17070000     -69.22700000
H      -43.15480000     -29.46670000     -71.25170000
H      -42.64820000     -30.64390000     -73.47030000
C      -43.20210000     -30.72340000     -68.79640000
H      -43.20580000     -29.61290000     -68.74940000
H      -42.54800000     -30.99080000     -67.97470000
C      -41.72900000     -34.79370000     -71.42150000
H      -40.80420000     -34.96210000     -71.90690000
H      -41.62910000     -35.20770000     -70.37840000
S      -44.91630000     -31.10800000     -68.32500000
S      -42.92630000     -35.91590000     -72.25870000
C      -45.86670000     -31.64170000     -69.85780000
H      -46.31890000     -30.79440000     -70.36390000
H      -45.05770000     -31.95690000     -70.52040000
C      -44.18650000     -36.36970000     -70.93920000
H      -43.59830000     -36.67560000     -70.11910000
H      -44.63110000     -37.23460000     -71.50740000
C      -45.11870000     -35.24400000     -70.70270000
H      -45.63270000     -35.55270000     -69.78630000
H      -44.67030000     -34.26610000     -70.56820000
C      -46.87100000     -32.63730000     -69.38930000
H      -47.45070000     -32.09280000     -68.66640000
H      -46.44390000     -33.54550000     -68.87180000
C      -47.75610000     -33.03750000     -70.59270000
C      -48.94190000     -32.44530000     -70.94810000
C      -47.29400000     -34.06680000     -71.56560000
H      -49.43360000     -31.68060000     -70.35590000
C      -48.22610000     -34.08930000     -72.60650000
C      -46.12030000     -34.90790000     -71.80920000
C      -46.32940000     -35.61560000     -72.98610000
S      -49.59970000     -32.95440000     -72.47130000
S      -47.76380000     -35.10420000     -73.95850000
H      -45.54950000     -36.17340000     -73.53960000
