40
Properties=species:S:1:pos:R:3 #=T CELL(abcABC):=T 1.889726e+02=T 90.00000=T Traj:=T positionsangstrom=T Step:=T 0=T Bead:=T pbc="F F F"
C      -42.10830000     -32.52760000     -73.09190000
C      -42.07750000     -33.50160000     -72.12510000
C      -42.26830000     -33.12890000     -70.74470000
C      -42.51450000     -31.84260000     -70.39240000
C      -42.64040000     -30.86620000     -71.40990000
C      -42.38600000     -31.16640000     -72.72220000
H      -41.95190000     -32.81220000     -74.10430000
H      -42.21290000     -33.90650000     -70.00320000
H      -42.90700000     -29.80980000     -71.15310000
H      -42.28290000     -30.37490000     -73.50820000
C      -42.62730000     -31.42050000     -68.94160000
H      -42.65350000     -30.34130000     -68.91980000
H      -41.71150000     -31.66740000     -68.40040000
C      -41.85960000     -34.95190000     -72.39410000
H      -41.03760000     -35.09920000     -73.02340000
H      -41.52950000     -35.37620000     -71.42860000
S      -44.00190000     -32.23820000     -68.08070000
S      -43.30900000     -35.80990000     -73.26030000
C      -45.45190000     -31.99640000     -69.35050000
H      -45.65860000     -30.91250000     -69.48460000
H      -44.92220000     -32.39220000     -70.25570000
C      -44.41570000     -36.26930000     -71.88230000
H      -43.76050000     -36.56960000     -71.14270000
H      -45.07180000     -37.06450000     -72.27880000
C      -45.18870000     -35.01420000     -71.32950000
H      -45.32170000     -35.21140000     -70.31130000
H      -44.44940000     -34.20530000     -71.32180000
C      -46.57380000     -32.90800000     -68.89300000
H      -47.08140000     -32.44200000     -68.10610000
H      -46.17190000     -33.82600000     -68.50240000
C      -47.62900000     -33.01170000     -69.95490000
C      -48.70260000     -32.13890000     -69.90540000
C      -47.49370000     -33.75150000     -71.19160000
H      -49.01740000     -31.47270000     -69.14120000
C      -48.58450000     -33.53550000     -72.02500000
C      -46.49040000     -34.64770000     -71.85690000
C      -46.87960000     -34.93120000     -73.12920000
S      -49.75310000     -32.47290000     -71.34380000
S      -48.44950000     -34.28520000     -73.54300000
H      -46.30580000     -35.52120000     -73.79290000
