40
Properties=species:S:1:pos:R:3 #=T CELL(abcABC):=T 1.889726e+02=T 90.00000=T Traj:=T positionsangstrom=T Step:=T 0=T Bead:=T pbc="F F F"
C      -42.81420000     -32.03150000     -71.44550000
C      -43.85670000     -31.23720000     -72.01280000
C      -44.48990000     -31.69030000     -73.20190000
C      -44.34690000     -32.97500000     -73.72390000
C      -43.31620000     -33.79390000     -73.11650000
C      -42.61880000     -33.31900000     -72.00590000
H      -42.52830000     -31.71820000     -70.45960000
H      -45.28850000     -31.11040000     -73.64700000
H      -43.15300000     -34.72210000     -73.56680000
H      -41.81320000     -33.94800000     -71.53880000
C      -45.11690000     -33.51860000     -74.87190000
H      -44.59260000     -34.01800000     -75.77150000
H      -45.66570000     -32.77940000     -75.35720000
C      -44.26180000     -29.95720000     -71.47350000
H      -43.49710000     -29.22860000     -71.70950000
H      -45.21100000     -29.70620000     -71.90030000
S      -46.27940000     -34.97380000     -74.55870000
S      -44.51900000     -29.85330000     -69.64100000
C      -47.76430000     -34.15830000     -73.81430000
H      -48.11780000     -33.36210000     -74.46520000
H      -48.59540000     -34.90800000     -73.82400000
C      -46.24360000     -30.33530000     -69.34820000
H      -46.85630000     -29.56840000     -69.76960000
H      -46.43110000     -30.35710000     -68.25610000
C      -46.55470000     -31.67840000     -70.05270000
H      -47.66680000     -31.77540000     -69.95540000
H      -46.43930000     -31.50900000     -71.11540000
C      -47.49160000     -33.60490000     -72.39890000
H      -48.46870000     -33.36170000     -71.98270000
H      -46.89550000     -32.68790000     -72.40760000
C      -46.78390000     -34.63300000     -71.48700000
C      -46.87150000     -36.02070000     -71.60120000
C      -46.04150000     -34.20710000     -70.33650000
H      -47.38130000     -36.55170000     -72.43270000
C      -45.48160000     -35.29420000     -69.67180000
C      -45.78420000     -32.88990000     -69.65640000
C      -44.91810000     -33.05670000     -68.60060000
S      -46.04820000     -36.88530000     -70.24900000
S      -44.43190000     -34.78240000     -68.31010000
H      -44.54600000     -32.21600000     -67.95220000
