40
Properties=species:S:1:pos:R:3 #=T CELL(abcABC):=T 1.889726e+02=T 90.00000=T Traj:=T positionsangstrom=T Step:=T 0=T Bead:=T pbc="F F F"
C      -43.01360000     -32.16430000     -72.19670000
C      -44.07220000     -31.27020000     -72.59460000
C      -45.04260000     -31.81730000     -73.48730000
C      -45.00290000     -33.13980000     -73.93110000
C      -44.05010000     -33.98660000     -73.44100000
C      -42.97840000     -33.46490000     -72.72570000
H      -42.11510000     -31.84070000     -71.60940000
H      -45.84630000     -31.19130000     -73.81600000
H      -44.10990000     -35.00780000     -73.80290000
H      -42.23990000     -34.16270000     -72.36730000
C      -46.11590000     -33.59240000     -74.81870000
H      -45.78050000     -33.76950000     -75.88030000
H      -46.84000000     -32.77360000     -74.90320000
C      -44.25050000     -29.90440000     -72.01030000
H      -43.49020000     -29.24210000     -72.29810000
H      -45.23170000     -29.43990000     -72.31730000
S      -46.91710000     -35.19900000     -74.29570000
S      -44.16720000     -29.71590000     -70.20250000
C      -48.24890000     -34.70140000     -73.01950000
H      -49.09540000     -34.12540000     -73.46600000
H      -48.74850000     -35.66480000     -72.70120000
C      -45.86190000     -30.20150000     -69.63260000
H      -46.63390000     -29.52720000     -69.99920000
H      -45.85040000     -30.30140000     -68.51840000
C      -46.32010000     -31.64370000     -70.11000000
H      -47.33170000     -31.82340000     -69.80340000
H      -46.30970000     -31.60720000     -71.24260000
C      -47.64890000     -33.98760000     -71.79980000
H      -48.48300000     -33.59060000     -71.16880000
H      -47.02830000     -33.19520000     -72.23010000
C      -46.65460000     -34.79330000     -71.00090000
C      -46.46200000     -36.12710000     -71.04510000
C      -45.83070000     -34.13630000     -70.02190000
H      -46.94220000     -36.97920000     -71.49980000
C      -45.07880000     -35.07130000     -69.33680000
C      -45.53300000     -32.75520000     -69.60710000
C      -44.64510000     -32.73570000     -68.60810000
S      -45.28480000     -36.75710000     -69.85140000
S      -44.04690000     -34.33040000     -68.20680000
H      -44.03630000     -31.93830000     -68.16320000
