40
Properties=species:S:1:pos:R:3 #=T CELL(abcABC):=T 1.889726e+02=T 90.00000=T Traj:=T positionsangstrom=T Step:=T 0=T Bead:=T pbc="F F F"
C      -42.86580000     -32.52950000     -71.68680000
C      -43.72700000     -31.59730000     -72.24790000
C      -44.70160000     -31.96760000     -73.19380000
C      -44.86380000     -33.29200000     -73.53790000
C      -44.10450000     -34.29860000     -72.84200000
C      -43.03680000     -33.85780000     -71.97890000
H      -42.09890000     -32.12530000     -71.09150000
H      -45.33850000     -31.21900000     -73.65310000
H      -44.18750000     -35.33640000     -73.06850000
H      -42.48350000     -34.63010000     -71.41450000
C      -45.77410000     -33.70640000     -74.69360000
H      -45.06400000     -33.79640000     -75.54350000
H      -46.33960000     -32.88340000     -74.90840000
C      -43.75290000     -30.17710000     -71.86720000
H      -42.72280000     -29.71000000     -71.89750000
H      -44.47320000     -29.49120000     -72.42190000
S      -46.74780000     -35.24840000     -74.47550000
S      -44.10120000     -29.82290000     -70.09490000
C      -48.19260000     -34.59340000     -73.44530000
H      -48.74180000     -33.95130000     -74.14260000
H      -48.82180000     -35.55130000     -73.40320000
C      -46.00600000     -30.02210000     -69.76550000
H      -46.52900000     -29.13310000     -70.11710000
H      -46.01440000     -30.08330000     -68.64210000
C      -46.53840000     -31.41760000     -70.26450000
H      -47.65460000     -31.50540000     -70.10320000
H      -46.42910000     -31.58540000     -71.38990000
C      -47.97180000     -33.89230000     -72.11800000
H      -48.95850000     -34.00370000     -71.64950000
H      -47.76930000     -32.88160000     -72.33100000
C      -46.79770000     -34.62430000     -71.26700000
C      -46.55350000     -35.99100000     -71.29800000
C      -46.02380000     -33.99210000     -70.16340000
H      -47.05530000     -36.54340000     -72.02300000
C      -45.16680000     -34.89430000     -69.53960000
C      -45.84740000     -32.64120000     -69.67060000
C      -44.82820000     -32.61030000     -68.69960000
S      -45.36910000     -36.54540000     -70.14860000
S      -44.24700000     -34.15640000     -68.24910000
H      -44.54990000     -31.75940000     -68.08910000
