40
Properties=species:S:1:pos:R:3 #=T CELL(abcABC):=T 1.889726e+02=T 90.00000=T Traj:=T positionsangstrom=T Step:=T 0=T Bead:=T pbc="F F F"
C      -43.37390000     -32.11340000     -72.23690000
C      -44.41770000     -31.27170000     -72.72110000
C      -45.40520000     -31.74000000     -73.63300000
C      -45.27490000     -33.10830000     -74.04650000
C      -44.10640000     -33.77720000     -73.78870000
C      -43.13090000     -33.33330000     -72.89420000
H      -42.68580000     -31.83150000     -71.44310000
H      -46.28370000     -31.07350000     -73.85180000
H      -44.04410000     -34.83130000     -74.03360000
H      -42.32320000     -34.05550000     -72.64080000
C      -46.35650000     -33.79350000     -74.82710000
H      -46.00690000     -33.95030000     -75.87720000
H      -47.26740000     -33.19000000     -74.93420000
C      -44.53590000     -29.84470000     -72.21980000
H      -43.83110000     -29.24080000     -72.69340000
H      -45.50950000     -29.45920000     -72.28060000
S      -46.96570000     -35.38490000     -74.07150000
S      -43.97120000     -29.77530000     -70.35650000
C      -48.28980000     -34.72500000     -72.85940000
H      -48.96420000     -34.11520000     -73.43950000
H      -48.89590000     -35.51920000     -72.53400000
C      -45.48580000     -30.21650000     -69.42660000
H      -46.11210000     -29.35700000     -69.61080000
H      -45.22010000     -30.34570000     -68.38790000
C      -46.13250000     -31.48060000     -69.85030000
H      -47.07900000     -31.38260000     -69.38520000
H      -46.34040000     -31.56890000     -70.93200000
C      -47.59290000     -33.89680000     -71.84010000
H      -48.37320000     -33.31270000     -71.35050000
H      -46.99470000     -33.22080000     -72.46130000
C      -46.66610000     -34.70250000     -70.85170000
C      -46.45900000     -36.07140000     -70.98630000
C      -45.82210000     -34.09150000     -69.88530000
H      -47.11890000     -36.71510000     -71.51660000
C      -44.96110000     -35.05370000     -69.34710000
C      -45.54560000     -32.78910000     -69.35580000
C      -44.50700000     -32.81360000     -68.39390000
S      -45.16850000     -36.72330000     -69.91980000
S      -43.81420000     -34.40260000     -68.30560000
H      -43.92500000     -31.96900000     -67.98960000
