40
Properties=species:S:1:pos:R:3 #=T CELL(abcABC):=T 1.889726e+02=T 90.00000=T Traj:=T positionsangstrom=T Step:=T 0=T Bead:=T pbc="F F F"
C      -42.40830000     -32.36620000     -73.09180000
C      -42.07330000     -33.46220000     -72.23110000
C      -42.19580000     -33.18010000     -70.81030000
C      -42.49560000     -31.91040000     -70.34770000
C      -42.78010000     -30.88250000     -71.24330000
C      -42.83830000     -31.12130000     -72.63600000
H      -42.57350000     -32.53380000     -74.15420000
H      -41.94000000     -34.12350000     -70.22260000
H      -43.21850000     -29.97360000     -70.82620000
H      -43.16290000     -30.43270000     -73.36980000
C      -42.55770000     -31.62160000     -68.86230000
H      -42.63580000     -30.47980000     -68.56580000
H      -41.64250000     -31.99430000     -68.40930000
C      -41.83050000     -34.79520000     -72.75800000
H      -41.10140000     -34.73190000     -73.56520000
H      -41.38690000     -35.38990000     -71.98160000
S      -43.95530000     -32.49700000     -67.98550000
S      -43.46230000     -35.44690000     -73.40610000
C      -45.36540000     -31.92700000     -69.02470000
H      -45.53670000     -30.88460000     -68.74700000
H      -44.96490000     -31.95450000     -70.05980000
C      -44.26500000     -36.03960000     -71.82070000
H      -43.43340000     -36.45630000     -71.23820000
H      -45.04370000     -36.76840000     -72.11760000
C      -45.03760000     -34.94230000     -71.14370000
H      -45.27300000     -35.34890000     -70.11440000
H      -44.43850000     -34.03870000     -70.89960000
C      -46.59110000     -32.77120000     -68.80380000
H      -47.07900000     -32.57670000     -67.80740000
H      -46.11230000     -33.74100000     -68.62120000
C      -47.55910000     -32.85600000     -70.00110000
C      -48.74240000     -32.22930000     -70.08880000
C      -47.35970000     -33.70000000     -71.25530000
H      -49.08300000     -31.74040000     -69.17120000
C      -48.47440000     -33.58140000     -72.05090000
C      -46.36350000     -34.58720000     -71.80320000
C      -46.77940000     -35.14700000     -73.01030000
S      -49.76870000     -32.48680000     -71.53030000
S      -48.36870000     -34.56440000     -73.47880000
H      -46.17930000     -35.66320000     -73.76080000
