40
Properties=species:S:1:pos:R:3 #=T CELL(abcABC):=T 1.889726e+02=T 90.00000=T Traj:=T positionsangstrom=T Step:=T 0=T Bead:=T pbc="F F F"
C      -43.22650000     -32.10930000     -72.57320000
C      -44.35960000     -31.30500000     -72.82650000
C      -45.49230000     -31.89460000     -73.49460000
C      -45.33430000     -33.19070000     -73.97190000
C      -44.21590000     -33.97990000     -73.67390000
C      -43.13530000     -33.39100000     -73.02740000
H      -42.38360000     -31.65050000     -72.00180000
H      -46.43020000     -31.35940000     -73.62130000
H      -44.05990000     -34.94540000     -74.11390000
H      -42.27840000     -33.98010000     -72.71310000
C      -46.39060000     -33.77840000     -74.84750000
H      -46.00890000     -34.20940000     -75.76470000
H      -47.13520000     -33.07560000     -75.07180000
C      -44.48920000     -29.94640000     -72.24840000
H      -43.93940000     -29.20920000     -72.92230000
H      -45.61450000     -29.71270000     -72.30620000
S      -47.10330000     -35.30690000     -74.06920000
S      -43.97000000     -29.76750000     -70.38420000
C      -48.34010000     -34.68760000     -72.79640000
H      -48.98200000     -33.93340000     -73.34050000
H      -48.92420000     -35.51590000     -72.40560000
C      -45.57680000     -30.17220000     -69.57570000
H      -46.36570000     -29.44390000     -69.82170000
H      -45.48710000     -30.01580000     -68.48750000
C      -46.14340000     -31.53990000     -69.90900000
H      -47.12610000     -31.55930000     -69.33060000
H      -46.40000000     -31.59490000     -70.98640000
C      -47.84410000     -33.99240000     -71.53940000
H      -48.74090000     -33.97180000     -70.87570000
H      -47.58690000     -32.96720000     -71.56650000
C      -46.68210000     -34.69520000     -70.79690000
C      -46.50530000     -36.07110000     -70.84370000
C      -45.63800000     -34.10640000     -69.93300000
H      -47.12130000     -36.66470000     -71.46870000
C      -44.76750000     -35.03080000     -69.35330000
C      -45.31750000     -32.71780000     -69.52130000
C      -44.28910000     -32.68950000     -68.57830000
S      -45.15280000     -36.70380000     -69.90630000
S      -43.76310000     -34.31810000     -68.17630000
H      -43.93230000     -31.70560000     -68.16790000
