40
Properties=species:S:1:pos:R:3 #=T CELL(abcABC):=T 1.889726e+02=T 90.00000=T Traj:=T positionsangstrom=T Step:=T 0=T Bead:=T pbc="F F F"
C      -43.44060000     -32.35700000     -72.33070000
C      -44.50180000     -31.56480000     -72.70180000
C      -45.59930000     -32.09280000     -73.35920000
C      -45.66740000     -33.42420000     -73.65970000
C      -44.50410000     -34.17190000     -73.47800000
C      -43.41060000     -33.63170000     -72.83540000
H      -42.59330000     -31.82890000     -71.85360000
H      -46.40980000     -31.42020000     -73.58410000
H      -44.52290000     -35.27770000     -73.75710000
H      -42.60340000     -34.34570000     -72.64190000
C      -46.88650000     -34.12280000     -74.38030000
H      -46.42750000     -34.41400000     -75.34180000
H      -47.67840000     -33.39400000     -74.53190000
C      -44.56400000     -30.00760000     -72.40560000
H      -43.82650000     -29.47260000     -73.00330000
H      -45.56900000     -29.65330000     -72.72860000
S      -47.66660000     -35.61570000     -73.61020000
S      -44.23070000     -29.63390000     -70.65710000
C      -48.52320000     -34.97930000     -72.23130000
H      -49.46910000     -34.42880000     -72.52980000
H      -48.87970000     -35.89260000     -71.76000000
C      -45.77540000     -30.05510000     -69.80890000
H      -46.49360000     -29.35040000     -70.19600000
H      -45.60510000     -29.70840000     -68.76220000
C      -46.34780000     -31.48540000     -69.94370000
H      -47.23580000     -31.53790000     -69.28840000
H      -46.76730000     -31.51900000     -70.95260000
C      -47.68440000     -34.15960000     -71.22480000
H      -48.32090000     -33.96040000     -70.36140000
H      -47.48450000     -33.18540000     -71.66090000
C      -46.41610000     -34.76850000     -70.70000000
C      -46.05300000     -36.08670000     -70.78590000
C      -45.46060000     -34.00490000     -70.02790000
H      -46.51150000     -36.96540000     -71.29380000
C      -44.30760000     -34.77750000     -69.66590000
C      -45.39970000     -32.65430000     -69.59270000
C      -44.24040000     -32.38690000     -69.00560000
S      -44.50640000     -36.44210000     -70.11040000
S      -43.14060000     -33.79680000     -68.73570000
H      -43.94090000     -31.42120000     -68.70890000
