40
Properties=species:S:1:pos:R:3 #=T CELL(abcABC):=T 1.889726e+02=T 90.00000=T Traj:=T positionsangstrom=T Step:=T 0=T Bead:=T pbc="F F F"
C      -43.37830000     -32.28160000     -72.44770000
C      -44.46000000     -31.40800000     -72.69070000
C      -45.60610000     -31.82620000     -73.38350000
C      -45.66450000     -33.18840000     -73.80380000
C      -44.56800000     -34.03950000     -73.54110000
C      -43.44380000     -33.56860000     -72.93690000
H      -42.44930000     -31.91550000     -72.00200000
H      -46.45150000     -31.17150000     -73.47720000
H      -44.69010000     -35.06460000     -73.89380000
H      -42.60730000     -34.14650000     -72.72610000
C      -46.84220000     -33.71370000     -74.58010000
H      -46.60500000     -33.80280000     -75.65040000
H      -47.63770000     -32.96970000     -74.42690000
C      -44.38070000     -29.90720000     -72.31530000
H      -43.55960000     -29.37160000     -72.86920000
H      -45.30060000     -29.36690000     -72.59930000
S      -47.30110000     -35.43300000     -74.00510000
S      -44.07000000     -29.72560000     -70.51560000
C      -48.36170000     -34.98340000     -72.57250000
H      -49.20050000     -34.38150000     -72.89580000
H      -48.78930000     -35.89370000     -72.24790000
C      -45.65830000     -30.20270000     -69.69530000
H      -46.44490000     -29.49540000     -69.92920000
H      -45.45600000     -30.08680000     -68.62080000
C      -46.19620000     -31.55190000     -70.00030000
H      -47.18510000     -31.52880000     -69.52640000
H      -46.50240000     -31.55680000     -71.06470000
C      -47.74670000     -34.17060000     -71.43260000
H      -48.52030000     -34.18530000     -70.65540000
H      -47.59970000     -33.08130000     -71.67220000
C      -46.53360000     -34.77520000     -70.82640000
C      -46.26670000     -36.11330000     -70.78570000
C      -45.48570000     -34.06930000     -70.06390000
H      -47.04930000     -36.77590000     -71.04430000
C      -44.59040000     -34.94340000     -69.36100000
C      -45.30710000     -32.68140000     -69.65600000
C      -44.13870000     -32.55100000     -68.90470000
S      -44.93010000     -36.60740000     -69.72650000
S      -43.32230000     -34.04880000     -68.51570000
H      -43.60420000     -31.60550000     -68.55730000
