40
Properties=species:S:1:pos:R:3 #=T CELL(abcABC):=T 1.889726e+02=T 90.00000=T Traj:=T positionsangstrom=T Step:=T 0=T Bead:=T pbc="F F F"
C      -43.46980000     -32.35200000     -72.57730000
C      -44.64120000     -31.56850000     -72.71230000
C      -45.74930000     -32.13620000     -73.34560000
C      -45.81960000     -33.48870000     -73.75940000
C      -44.65160000     -34.27200000     -73.45460000
C      -43.49630000     -33.72780000     -72.89920000
H      -42.64550000     -31.90350000     -72.02990000
H      -46.64100000     -31.49710000     -73.45860000
H      -44.77870000     -35.31350000     -73.83610000
H      -42.61310000     -34.31740000     -72.90250000
C      -46.94300000     -34.04050000     -74.43020000
H      -46.66470000     -34.36220000     -75.41890000
H      -47.82650000     -33.34070000     -74.58300000
C      -44.66940000     -30.08640000     -72.23940000
H      -44.03750000     -29.41030000     -72.75700000
H      -45.67150000     -29.76220000     -72.46220000
S      -47.51130000     -35.59260000     -73.61720000
S      -44.16330000     -29.73360000     -70.52020000
C      -48.45770000     -35.15970000     -72.14340000
H      -49.41620000     -34.77590000     -72.44760000
H      -48.60050000     -36.11410000     -71.65750000
C      -45.76260000     -30.01950000     -69.53080000
H      -46.49160000     -29.24650000     -69.77360000
H      -45.50940000     -29.92660000     -68.43670000
C      -46.30360000     -31.41350000     -69.88080000
H      -47.27110000     -31.59490000     -69.45630000
H      -46.54050000     -31.40740000     -71.03580000
C      -47.78520000     -34.17690000     -71.21880000
H      -48.45370000     -34.14210000     -70.34480000
H      -47.77530000     -33.13120000     -71.58560000
C      -46.45150000     -34.62610000     -70.71940000
C      -46.14410000     -35.99610000     -70.84120000
C      -45.45320000     -33.92010000     -70.02600000
H      -46.84220000     -36.84290000     -71.05070000
C      -44.31870000     -34.70830000     -69.67480000
C      -45.29560000     -32.55750000     -69.59530000
C      -44.09010000     -32.37420000     -68.92330000
S      -44.50110000     -36.34440000     -70.22070000
S      -43.06330000     -33.83630000     -68.85280000
H      -43.69350000     -31.37810000     -68.59580000
