40
Properties=species:S:1:pos:R:3 #=T CELL(abcABC):=T 1.889726e+02=T 90.00000=T Traj:=T positionsangstrom=T Step:=T 0=T Bead:=T pbc="F F F"
C      -43.15930000     -32.20380000     -72.51980000
C      -44.30760000     -31.35330000     -72.68950000
C      -45.38800000     -31.85350000     -73.46830000
C      -45.41370000     -33.21190000     -73.93250000
C      -44.28300000     -34.00530000     -73.73390000
C      -43.20110000     -33.47700000     -73.05510000
H      -42.17990000     -31.95220000     -72.05940000
H      -46.20740000     -31.19340000     -73.70520000
H      -44.28910000     -35.02840000     -74.13350000
H      -42.27720000     -34.05930000     -72.89050000
C      -46.59330000     -33.76710000     -74.61810000
H      -46.36970000     -34.09190000     -75.67950000
H      -47.33670000     -32.96810000     -74.67390000
C      -44.30130000     -29.93730000     -72.19730000
H      -43.40460000     -29.37320000     -72.45370000
H      -45.22250000     -29.45130000     -72.48050000
S      -47.38780000     -35.30030000     -74.02270000
S      -44.11740000     -29.72100000     -70.30390000
C      -48.39910000     -34.85310000     -72.62640000
H      -49.34210000     -34.41530000     -73.08890000
H      -48.66810000     -35.81020000     -72.12700000
C      -45.83700000     -30.12960000     -69.75970000
H      -46.55850000     -29.46390000     -70.24160000
H      -45.82700000     -29.76210000     -68.70200000
C      -46.27890000     -31.52360000     -69.89940000
H      -47.26220000     -31.65660000     -69.43910000
H      -46.43600000     -31.64260000     -70.92240000
C      -47.72040000     -34.01090000     -71.50960000
H      -48.44270000     -33.50940000     -70.79460000
H      -47.20400000     -33.17450000     -71.91930000
C      -46.64910000     -34.78120000     -70.75120000
C      -46.47980000     -36.16770000     -70.68260000
C      -45.61790000     -34.10160000     -69.95180000
H      -47.07930000     -36.90810000     -71.12190000
C      -44.71290000     -34.99530000     -69.39400000
C      -45.36860000     -32.76680000     -69.52470000
C      -44.13870000     -32.64020000     -68.83290000
S      -45.01230000     -36.63050000     -69.82830000
S      -43.45040000     -34.24290000     -68.52690000
H      -43.87320000     -31.73700000     -68.23060000
