40
Properties=species:S:1:pos:R:3 #=T CELL(abcABC):=T 1.889726e+02=T 90.00000=T Traj:=T positionsangstrom=T Step:=T 0=T Bead:=T pbc="F F F"
C      -44.04230000     -31.58780000     -72.66970000
C      -45.31140000     -31.16340000     -72.28170000
C      -46.44970000     -31.87040000     -72.70630000
C      -46.35000000     -33.04080000     -73.47140000
C      -45.05200000     -33.51950000     -73.74550000
C      -43.89540000     -32.75670000     -73.43340000
H      -43.26870000     -31.00060000     -72.21900000
H      -47.50270000     -31.50540000     -72.51890000
H      -44.90190000     -34.47420000     -74.17780000
H      -42.92030000     -33.15170000     -73.67230000
C      -47.56870000     -33.71220000     -74.08490000
H      -47.41070000     -33.68790000     -75.19840000
H      -48.39340000     -33.06820000     -73.88570000
C      -45.44790000     -29.88930000     -71.51540000
H      -45.00000000     -29.10440000     -72.04180000
H      -46.50340000     -29.56880000     -71.36730000
S      -47.96680000     -35.50300000     -73.53540000
S      -44.48220000     -29.79680000     -69.87220000
C      -48.55810000     -35.20910000     -71.78170000
H      -49.45620000     -34.62650000     -71.60730000
H      -48.88460000     -36.24330000     -71.44710000
C      -45.71060000     -30.64070000     -68.68490000
H      -46.67580000     -30.07920000     -68.65510000
H      -45.27210000     -30.55440000     -67.69530000
C      -46.05830000     -32.14540000     -69.04710000
H      -46.70970000     -32.49530000     -68.19030000
H      -46.71110000     -32.03100000     -69.86390000
C      -47.44680000     -34.60120000     -70.84080000
H      -47.72780000     -34.87870000     -69.81060000
H      -47.47060000     -33.49540000     -70.99010000
C      -46.05220000     -34.98590000     -70.91160000
C      -45.57540000     -36.05450000     -71.57520000
C      -44.95380000     -34.17910000     -70.28130000
H      -46.15260000     -36.80990000     -72.00420000
C      -43.72360000     -34.85150000     -70.41110000
C      -44.85920000     -33.03720000     -69.33720000
C      -43.53290000     -32.87860000     -68.92670000
S      -43.84030000     -36.23520000     -71.44490000
S      -42.45770000     -34.14900000     -69.46060000
H      -43.22760000     -32.02450000     -68.42200000
