40
Properties=species:S:1:pos:R:3 #=T CELL(abcABC):=T 1.889726e+02=T 90.00000=T Traj:=T positionsangstrom=T Step:=T 0=T Bead:=T pbc="F F F"
C      -46.81070000     -36.23350000     -74.00020000
C      -47.19240000     -35.65940000     -72.80150000
C      -46.31750000     -35.89970000     -71.72560000
C      -45.15700000     -36.69400000     -71.78770000
C      -44.76420000     -37.25370000     -73.01890000
C      -45.63870000     -37.03010000     -74.08220000
H      -47.51250000     -36.14110000     -74.82120000
H      -46.36150000     -35.38480000     -70.73970000
H      -43.96990000     -37.92720000     -73.09460000
H      -45.29610000     -37.54890000     -74.97280000
C      -44.44750000     -37.08390000     -70.54810000
H      -44.17300000     -38.11650000     -70.53700000
H      -45.11870000     -36.84470000     -69.74910000
C      -48.35440000     -34.81770000     -72.77160000
H      -48.18640000     -33.98200000     -73.46280000
H      -49.10150000     -35.39870000     -73.23360000
S      -42.82030000     -36.16490000     -70.26200000
S      -49.12240000     -34.20510000     -71.23240000
C      -43.63980000     -34.53570000     -70.02320000
H      -44.62360000     -34.63550000     -69.54440000
H      -42.94850000     -33.99510000     -69.36070000
C      -48.24430000     -32.61040000     -71.13680000
H      -48.90700000     -31.98490000     -70.55440000
H      -48.23710000     -32.30380000     -72.17790000
C      -46.83800000     -32.68620000     -70.55520000
H      -46.92570000     -33.02550000     -69.46730000
H      -46.26130000     -33.44270000     -71.03330000
C      -43.66260000     -33.73240000     -71.37500000
H      -44.59820000     -33.86970000     -71.90400000
H      -42.83930000     -34.06080000     -72.05670000
C      -43.56470000     -32.25870000     -71.15070000
C      -42.31300000     -31.64820000     -71.13220000
C      -44.59770000     -31.32300000     -70.90550000
H      -41.36790000     -32.18520000     -71.35160000
C      -44.17730000     -29.99760000     -70.71420000
C      -46.05720000     -31.40570000     -70.64360000
C      -46.64220000     -30.16990000     -70.60260000
S      -42.40460000     -29.90530000     -70.86950000
S      -45.52800000     -28.81430000     -70.57550000
H      -47.70850000     -29.99630000     -70.45590000
