40
Properties=species:S:1:pos:R:3 #=T CELL(abcABC):=T 1.889726e+02=T 90.00000=T Traj:=T positionsangstrom=T Step:=T 0=T Bead:=T pbc="F F F"
C      -46.71230000     -36.17400000     -74.17540000
C      -47.26430000     -35.87120000     -72.91650000
C      -46.64440000     -36.34100000     -71.74040000
C      -45.43360000     -36.96610000     -71.75160000
C      -44.82900000     -37.27180000     -72.97960000
C      -45.45230000     -36.88690000     -74.17070000
H      -47.18590000     -35.75000000     -75.04070000
H      -47.13660000     -36.15300000     -70.78740000
H      -43.93430000     -37.88370000     -73.07430000
H      -45.11980000     -37.15520000     -75.11610000
C      -44.62200000     -37.20220000     -70.45970000
H      -44.48530000     -38.29100000     -70.33200000
H      -45.23900000     -36.82320000     -69.61860000
C      -48.56340000     -34.99660000     -72.85590000
H      -48.44690000     -34.06140000     -73.47480000
H      -49.47440000     -35.55130000     -73.15730000
S      -42.98220000     -36.34120000     -70.51900000
S      -48.91480000     -34.38410000     -71.07330000
C      -43.38390000     -34.60270000     -69.95570000
H      -44.42890000     -34.59970000     -69.66370000
H      -42.74790000     -34.41350000     -69.10510000
C      -48.01400000     -32.80340000     -71.14870000
H      -48.74890000     -32.06970000     -70.80620000
H      -47.74810000     -32.46200000     -72.15390000
C      -46.66350000     -32.78750000     -70.44910000
H      -46.73290000     -33.13070000     -69.42500000
H      -45.96610000     -33.45980000     -70.97180000
C      -43.22650000     -33.54470000     -71.00920000
H      -43.90800000     -33.72330000     -71.86370000
H      -42.22420000     -33.65670000     -71.42000000
C      -43.34370000     -32.03870000     -70.81920000
C      -42.25370000     -31.21220000     -71.08510000
C      -44.53280000     -31.21530000     -70.54550000
H      -41.22270000     -31.51560000     -71.16280000
C      -44.23040000     -29.85860000     -70.68380000
C      -46.03410000     -31.42070000     -70.57220000
C      -46.65370000     -30.21400000     -70.63870000
S      -42.59150000     -29.45880000     -71.07940000
S      -45.64920000     -28.76950000     -70.67040000
H      -47.73860000     -30.08660000     -70.66240000
