40
Properties=species:S:1:pos:R:3 #=T CELL(abcABC):=T 1.889726e+02=T 90.00000=T Traj:=T positionsangstrom=T Step:=T 0=T Bead:=T pbc="F F F"
C      -44.00860000     -31.83060000     -72.81950000
C      -45.26220000     -31.20900000     -72.71250000
C      -46.37720000     -31.83280000     -73.28510000
C      -46.20980000     -33.09110000     -73.90910000
C      -44.95310000     -33.71140000     -74.01850000
C      -43.80460000     -33.05390000     -73.47850000
H      -43.16420000     -31.29180000     -72.45250000
H      -47.35410000     -31.39940000     -73.16570000
H      -44.94130000     -34.69140000     -74.48550000
H      -42.78180000     -33.42000000     -73.52270000
C      -47.41490000     -33.79520000     -74.38890000
H      -47.29140000     -33.97220000     -75.49240000
H      -48.32010000     -33.32360000     -74.13340000
C      -45.33860000     -29.78510000     -72.06540000
H      -44.81280000     -29.06880000     -72.76610000
H      -46.38900000     -29.39540000     -71.99050000
S      -47.55350000     -35.48350000     -73.55790000
S      -44.34590000     -29.64910000     -70.53180000
C      -48.39500000     -35.07960000     -71.92010000
H      -49.30360000     -34.46450000     -72.20110000
H      -48.63510000     -36.09040000     -71.60180000
C      -45.41400000     -30.41670000     -69.17150000
H      -46.08820000     -29.68150000     -68.83150000
H      -44.75430000     -30.61980000     -68.34480000
C      -46.00500000     -31.73890000     -69.61600000
H      -46.93280000     -32.05080000     -69.16030000
H      -46.33970000     -31.53830000     -70.63320000
C      -47.63360000     -34.33440000     -70.85030000
H      -48.14630000     -34.17600000     -69.87950000
H      -47.40130000     -33.29670000     -71.16710000
C      -46.21670000     -34.96320000     -70.51530000
C      -45.87890000     -36.21710000     -70.88050000
C      -45.19520000     -34.21540000     -69.82300000
H      -46.53700000     -36.93320000     -71.32300000
C      -44.00270000     -35.00210000     -69.68180000
C      -44.91970000     -32.80720000     -69.49910000
C      -43.67320000     -32.65080000     -68.96480000
S      -44.18620000     -36.61940000     -70.38220000
S      -42.67370000     -34.13120000     -68.94330000
H      -43.23770000     -31.68350000     -68.61500000
