40
Properties=species:S:1:pos:R:3 #=T CELL(abcABC):=T 1.889726e+02=T 90.00000=T Traj:=T positionsangstrom=T Step:=T 0=T Bead:=T pbc="F F F"
C      -46.71640000     -36.20560000     -74.12150000
C      -47.19340000     -35.80670000     -72.75150000
C      -46.47170000     -36.21340000     -71.68190000
C      -45.26810000     -36.97340000     -71.77640000
C      -44.85080000     -37.37720000     -73.06910000
C      -45.54840000     -37.00710000     -74.24970000
H      -47.25420000     -35.80300000     -75.01490000
H      -46.84190000     -36.04970000     -70.68340000
H      -43.83740000     -37.76230000     -73.16570000
H      -45.12190000     -37.37870000     -75.14710000
C      -44.49310000     -37.29390000     -70.52080000
H      -44.07880000     -38.32450000     -70.66880000
H      -45.06630000     -37.30380000     -69.61560000
C      -48.48850000     -34.94930000     -72.81990000
H      -48.46770000     -34.27230000     -73.65590000
H      -49.39180000     -35.61430000     -73.04140000
S      -42.93400000     -36.30560000     -70.38250000
S      -49.03460000     -34.20160000     -71.22200000
C      -43.34890000     -34.49760000     -69.98430000
H      -44.30740000     -34.47320000     -69.47460000
H      -42.60920000     -34.22930000     -69.21840000
C      -48.15940000     -32.57420000     -71.07300000
H      -48.76440000     -31.91220000     -70.36090000
H      -48.09140000     -32.04850000     -72.03170000
C      -46.80500000     -32.73370000     -70.37680000
H      -46.92770000     -32.99710000     -69.28590000
H      -46.31210000     -33.53180000     -70.83160000
C      -43.34030000     -33.63970000     -71.17330000
H      -44.22990000     -33.96780000     -71.75370000
H      -42.53680000     -33.92310000     -71.80120000
C      -43.44070000     -32.10570000     -70.96170000
C      -42.25680000     -31.38890000     -70.89220000
C      -44.59150000     -31.23480000     -70.89600000
H      -41.18070000     -31.60350000     -70.92300000
C      -44.26300000     -29.86010000     -70.98220000
C      -46.03620000     -31.40630000     -70.51450000
C      -46.64980000     -30.19240000     -70.35680000
S      -42.51740000     -29.61640000     -70.95220000
S      -45.62020000     -28.79710000     -70.72640000
H      -47.70200000     -30.01510000     -70.12240000
