40
Properties=species:S:1:pos:R:3 #=T CELL(abcABC):=T 1.889726e+02=T 90.00000=T Traj:=T positionsangstrom=T Step:=T 0=T Bead:=T pbc="F F F"
C      -46.96020000     -35.70370000     -74.44650000
C      -47.47950000     -35.56540000     -73.16770000
C      -46.86190000     -36.13350000     -72.06720000
C      -45.62690000     -36.80060000     -72.31260000
C      -45.03690000     -36.70080000     -73.55800000
C      -45.71770000     -36.23740000     -74.66250000
H      -47.37020000     -35.26950000     -75.40420000
H      -47.32930000     -36.22100000     -71.11340000
H      -43.95830000     -37.07940000     -73.72720000
H      -45.09620000     -36.12030000     -75.53660000
C      -44.87800000     -37.35970000     -71.10810000
H      -44.71210000     -38.47980000     -71.17700000
H      -45.65190000     -37.44480000     -70.30310000
C      -48.78800000     -34.79540000     -72.96830000
H      -48.99480000     -34.22420000     -73.77700000
H      -49.63330000     -35.47130000     -73.02540000
S      -43.37410000     -36.49570000     -70.49450000
S      -48.77020000     -33.81600000     -71.43650000
C      -44.01170000     -34.76360000     -70.22470000
H      -45.00160000     -34.83660000     -69.71050000
H      -43.37430000     -34.28560000     -69.50520000
C      -47.43290000     -32.57920000     -71.58870000
H      -47.73440000     -31.58540000     -72.04520000
H      -46.57430000     -33.05470000     -72.10180000
C      -46.98820000     -32.28480000     -70.17300000
H      -47.87230000     -32.01740000     -69.57000000
H      -46.65100000     -33.21830000     -69.72180000
C      -44.20040000     -33.73850000     -71.43930000
H      -45.19720000     -33.76680000     -71.69940000
H      -43.55570000     -34.06330000     -72.33400000
C      -43.75580000     -32.38850000     -71.08550000
C      -42.42840000     -31.98960000     -71.27760000
C      -44.47970000     -31.36540000     -70.41360000
H      -41.68410000     -32.63150000     -71.74980000
C      -43.68760000     -30.27480000     -70.16270000
C      -45.92610000     -31.19110000     -70.16260000
C      -46.23940000     -29.92190000     -69.75820000
S      -42.07890000     -30.32900000     -70.75210000
S      -44.76740000     -28.96720000     -69.55290000
H      -47.10980000     -29.43300000     -69.30260000
