40
Properties=species:S:1:pos:R:3 #=T CELL(abcABC):=T 1.889726e+02=T 90.00000=T Traj:=T positionsangstrom=T Step:=T 0=T Bead:=T pbc="F F F"
C      -44.18550000     -31.64940000     -72.56790000
C      -45.38840000     -31.04780000     -72.14560000
C      -46.60420000     -31.54330000     -72.66240000
C      -46.56960000     -32.64630000     -73.56940000
C      -45.36750000     -33.19320000     -73.96220000
C      -44.15220000     -32.73670000     -73.44920000
H      -43.34400000     -31.13930000     -72.11280000
H      -47.51610000     -31.01940000     -72.41370000
H      -45.36450000     -34.11210000     -74.52400000
H      -43.27340000     -33.33770000     -73.65870000
C      -47.88410000     -33.20680000     -74.04000000
H      -48.10670000     -33.22000000     -75.12960000
H      -48.69100000     -32.80290000     -73.54090000
C      -45.53450000     -29.80490000     -71.22530000
H      -45.20310000     -28.86830000     -71.81510000
H      -46.69320000     -29.79390000     -70.93240000
S      -47.96580000     -35.10560000     -73.52170000
S      -44.44930000     -29.90330000     -69.71490000
C      -48.51200000     -35.31470000     -71.76360000
H      -49.55180000     -34.87440000     -71.51250000
H      -48.60420000     -36.42950000     -71.48060000
C      -45.62120000     -30.84510000     -68.58400000
H      -46.56560000     -30.29760000     -68.46540000
H      -45.19170000     -30.81550000     -67.57990000
C      -45.86260000     -32.25660000     -69.19130000
H      -46.68650000     -32.79100000     -68.63820000
H      -46.25610000     -32.00480000     -70.15220000
C      -47.43120000     -34.61690000     -70.82040000
H      -47.61310000     -34.71030000     -69.72820000
H      -47.34190000     -33.58190000     -71.03470000
C      -45.97410000     -35.15300000     -70.94980000
C      -45.48260000     -36.13960000     -71.71390000
C      -44.86600000     -34.46700000     -70.26290000
H      -45.97510000     -36.87810000     -72.27100000
C      -43.69400000     -35.10240000     -70.37880000
C      -44.65710000     -33.25290000     -69.47410000
C      -43.40070000     -33.02450000     -69.04890000
S      -43.73840000     -36.43350000     -71.45800000
S      -42.33930000     -34.28530000     -69.59110000
H      -43.15770000     -32.18910000     -68.41620000
