40
Properties=species:S:1:pos:R:3 #=T CELL(abcABC):=T 1.889726e+02=T 90.00000=T Traj:=T positionsangstrom=T Step:=T 0=T Bead:=T pbc="F F F"
C      -44.33140000     -31.17750000     -72.66290000
C      -45.54390000     -30.71840000     -72.16160000
C      -46.68880000     -31.46860000     -72.54770000
C      -46.58790000     -32.63730000     -73.35610000
C      -45.35180000     -33.08750000     -73.80320000
C      -44.24680000     -32.29600000     -73.50610000
H      -43.45690000     -30.62710000     -72.27060000
H      -47.66440000     -31.02990000     -72.18870000
H      -45.25460000     -33.89500000     -74.50020000
H      -43.24680000     -32.61440000     -73.86320000
C      -47.82220000     -33.31920000     -73.77800000
H      -47.72920000     -33.18410000     -74.86570000
H      -48.81220000     -32.82500000     -73.47690000
C      -45.60090000     -29.54390000     -71.27720000
H      -45.15420000     -28.72630000     -71.74740000
H      -46.56730000     -29.21930000     -70.97680000
S      -47.92490000     -35.13630000     -73.53580000
S      -44.52340000     -29.80750000     -69.84910000
C      -48.55750000     -35.35120000     -71.74870000
H      -49.38420000     -34.67650000     -71.69180000
H      -48.77860000     -36.38390000     -71.70770000
C      -45.35860000     -31.02360000     -68.63440000
H      -46.37150000     -30.59150000     -68.41630000
H      -44.68770000     -31.06610000     -67.76040000
C      -45.78850000     -32.39980000     -69.15050000
H      -46.49620000     -32.73440000     -68.41260000
H      -46.37260000     -32.20620000     -70.05470000
C      -47.40670000     -34.82790000     -70.70490000
H      -47.70650000     -35.03210000     -69.63860000
H      -47.51660000     -33.78880000     -70.68200000
C      -45.96840000     -35.19780000     -70.94410000
C      -45.47660000     -36.26800000     -71.64710000
C      -44.85990000     -34.49760000     -70.36100000
H      -46.05660000     -36.83290000     -72.39460000
C      -43.60990000     -35.10930000     -70.55810000
C      -44.66500000     -33.40750000     -69.43300000
C      -43.42100000     -33.28610000     -68.90950000
S      -43.71140000     -36.47070000     -71.62570000
S      -42.31890000     -34.48890000     -69.52390000
H      -43.15950000     -32.41670000     -68.29350000
