40
Properties=species:S:1:pos:R:3 #=T CELL(abcABC):=T 1.889726e+02=T 90.00000=T Traj:=T positionsangstrom=T Step:=T 0=T Bead:=T pbc="F F F"
C      -44.12370000     -31.88800000     -72.43540000
C      -45.30410000     -31.20750000     -72.15780000
C      -46.51380000     -31.74820000     -72.66910000
C      -46.52740000     -32.79470000     -73.61450000
C      -45.30620000     -33.46260000     -73.87480000
C      -44.11120000     -33.02390000     -73.31670000
H      -43.18340000     -31.55860000     -72.11500000
H      -47.44420000     -31.36420000     -72.28890000
H      -45.30390000     -34.29900000     -74.60480000
H      -43.15070000     -33.47050000     -73.68010000
C      -47.84230000     -33.41480000     -74.05050000
H      -48.10370000     -33.23170000     -75.12240000
H      -48.58730000     -32.92560000     -73.43600000
C      -45.34950000     -29.95410000     -71.34400000
H      -44.84840000     -29.19700000     -71.79860000
H      -46.30470000     -29.61890000     -71.24190000
S      -48.10260000     -35.20440000     -73.78680000
S      -44.53170000     -29.99120000     -69.65000000
C      -48.38960000     -35.16160000     -71.92830000
H      -49.35120000     -34.81900000     -71.88900000
H      -48.43530000     -36.18450000     -71.58130000
C      -45.57990000     -30.87870000     -68.40540000
H      -46.44990000     -30.30030000     -68.08430000
H      -44.93900000     -30.95850000     -67.53780000
C      -45.90740000     -32.28870000     -68.85260000
H      -46.46680000     -32.85280000     -68.07380000
H      -46.63140000     -32.20810000     -69.67780000
C      -47.35050000     -34.39390000     -70.98240000
H      -47.83460000     -34.47790000     -70.02130000
H      -47.26270000     -33.29070000     -71.26370000
C      -45.99390000     -34.99760000     -70.93930000
C      -45.58450000     -36.12780000     -71.51260000
C      -44.90340000     -34.25050000     -70.29280000
H      -46.18770000     -36.77850000     -72.07300000
C      -43.68450000     -34.85090000     -70.48430000
C      -44.71880000     -33.07910000     -69.36970000
C      -43.46170000     -32.82400000     -68.97250000
S      -43.82250000     -36.42220000     -71.39790000
S      -42.28490000     -33.95720000     -69.69880000
H      -43.11010000     -32.07310000     -68.26270000
