40
Properties=species:S:1:pos:R:3 #=T CELL(abcABC):=T 1.889726e+02=T 90.00000=T Traj:=T positionsangstrom=T Step:=T 0=T Bead:=T pbc="F F F"
C      -46.87570000     -35.51490000     -74.13380000
C      -47.57700000     -35.45040000     -72.91050000
C      -46.94300000     -35.92270000     -71.74490000
C      -45.60810000     -36.44820000     -71.75030000
C      -44.91950000     -36.27830000     -72.94480000
C      -45.54500000     -35.86840000     -74.14080000
H      -47.39340000     -35.39590000     -75.10890000
H      -47.63590000     -36.13960000     -70.91940000
H      -43.87150000     -36.64250000     -73.09510000
H      -45.04030000     -35.95370000     -75.04320000
C      -45.02180000     -37.05070000     -70.56380000
H      -45.08660000     -38.20160000     -70.71820000
H      -45.67780000     -36.82420000     -69.69320000
C      -49.05660000     -34.96590000     -72.89240000
H      -49.18010000     -34.58770000     -73.88850000
H      -49.71360000     -35.86040000     -72.69540000
S      -43.27550000     -36.60040000     -70.23760000
S      -49.28860000     -33.88460000     -71.44550000
C      -43.33140000     -34.72610000     -69.87080000
H      -44.29900000     -34.39090000     -69.36550000
H      -42.49580000     -34.43320000     -69.23750000
C      -47.90170000     -32.61000000     -71.58150000
H      -48.37900000     -31.59430000     -71.62410000
H      -47.40710000     -32.71030000     -72.57400000
C      -46.71900000     -32.85500000     -70.64450000
H      -47.00020000     -33.13010000     -69.57560000
H      -46.18990000     -33.66450000     -71.06910000
C      -43.38170000     -34.01110000     -71.23670000
H      -44.21080000     -34.35750000     -71.80900000
H      -42.48430000     -34.40640000     -71.75460000
C      -43.24790000     -32.42160000     -71.07620000
C      -42.05920000     -31.85650000     -71.09440000
C      -44.39430000     -31.53580000     -70.79200000
H      -41.09020000     -32.33890000     -71.10790000
C      -43.90350000     -30.26360000     -70.62360000
C      -45.85290000     -31.59160000     -70.66900000
C      -46.35220000     -30.37640000     -70.33470000
S      -42.08880000     -30.03550000     -70.86950000
S      -45.10680000     -29.05600000     -70.34800000
H      -47.43020000     -30.12600000     -70.11580000
