40
Properties=species:S:1:pos:R:3 #=T CELL(abcABC):=T 1.889726e+02=T 90.00000=T Traj:=T positionsangstrom=T Step:=T 0=T Bead:=T pbc="F F F"
C      -44.77130000     -30.83230000     -72.84330000
C      -45.91620000     -30.68080000     -72.07640000
C      -47.01110000     -31.51320000     -72.33070000
C      -46.90600000     -32.59030000     -73.19830000
C      -45.66830000     -32.89490000     -73.81680000
C      -44.56030000     -32.00630000     -73.65110000
H      -43.90810000     -30.17320000     -72.79580000
H      -47.92020000     -31.29770000     -71.79600000
H      -45.61070000     -33.75340000     -74.52540000
H      -43.60410000     -32.15470000     -74.19600000
C      -48.09200000     -33.38420000     -73.65280000
H      -48.31830000     -33.36090000     -74.69610000
H      -49.10080000     -32.99820000     -73.14960000
C      -45.97410000     -29.59740000     -71.00670000
H      -45.71010000     -28.58260000     -71.41400000
H      -46.94300000     -29.47360000     -70.40950000
S      -47.76120000     -35.16290000     -73.30210000
S      -44.66660000     -29.85490000     -69.72340000
C      -48.28140000     -35.43840000     -71.56340000
H      -49.20630000     -34.92350000     -71.38040000
H      -48.46860000     -36.46660000     -71.43370000
C      -45.23860000     -31.05840000     -68.50420000
H      -46.14330000     -30.65840000     -67.92800000
H      -44.40900000     -31.11680000     -67.82730000
C      -45.59830000     -32.45480000     -69.06150000
H      -46.05210000     -32.96050000     -68.18000000
H      -46.29340000     -32.24130000     -69.81590000
C      -47.26720000     -35.02410000     -70.54190000
H      -47.70850000     -35.30720000     -69.57830000
H      -47.31090000     -33.90590000     -70.40820000
C      -45.75010000     -35.38680000     -70.69990000
C      -45.45910000     -36.53990000     -71.31750000
C      -44.62760000     -34.64390000     -70.17500000
H      -46.23620000     -37.10100000     -71.80390000
C      -43.42060000     -35.22560000     -70.61730000
C      -44.38330000     -33.27240000     -69.56460000
C      -43.09980000     -32.88430000     -69.74380000
S      -43.69820000     -36.73110000     -71.53260000
S      -42.03440000     -34.20830000     -70.35550000
H      -42.78150000     -31.92070000     -69.30390000
