40
Properties=species:S:1:pos:R:3 #=T CELL(abcABC):=T 1.889726e+02=T 90.00000=T Traj:=T positionsangstrom=T Step:=T 0=T Bead:=T pbc="F F F"
C      -44.33930000     -31.61600000     -72.87570000
C      -45.46640000     -31.07540000     -72.22270000
C      -46.69000000     -31.69540000     -72.50980000
C      -46.86770000     -32.84130000     -73.31290000
C      -45.75630000     -33.35730000     -73.96360000
C      -44.47930000     -32.75770000     -73.68050000
H      -43.41340000     -31.16600000     -72.56770000
H      -47.56410000     -31.11780000     -72.09560000
H      -45.82950000     -34.08980000     -74.70920000
H      -43.56240000     -33.28410000     -74.01180000
C      -48.24500000     -33.39520000     -73.63640000
H      -48.32110000     -33.31620000     -74.72300000
H      -49.12200000     -32.88790000     -73.14910000
C      -45.28830000     -29.84990000     -71.37000000
H      -44.83550000     -29.04540000     -71.87650000
H      -46.26730000     -29.49020000     -71.07930000
S      -48.27120000     -35.21420000     -73.29670000
S      -44.12970000     -30.08410000     -69.97420000
C      -48.37490000     -35.34580000     -71.43220000
H      -49.41760000     -35.00800000     -71.22690000
H      -48.34130000     -36.41450000     -71.19330000
C      -45.16570000     -30.86550000     -68.65820000
H      -45.93800000     -30.07050000     -68.28810000
H      -44.47890000     -30.94970000     -67.86530000
C      -45.65120000     -32.28290000     -68.96950000
H      -46.17370000     -32.72850000     -68.07930000
H      -46.31250000     -32.26230000     -69.81820000
C      -47.42140000     -34.50650000     -70.57630000
H      -47.72490000     -34.47140000     -69.53500000
H      -47.66700000     -33.39120000     -70.92040000
C      -45.95980000     -34.94540000     -70.71900000
C      -45.61100000     -36.03670000     -71.48260000
C      -44.78160000     -34.30750000     -70.20110000
H      -46.28910000     -36.84170000     -71.74420000
C      -43.61270000     -34.97400000     -70.59760000
C      -44.52300000     -33.17680000     -69.44920000
C      -43.19390000     -32.88720000     -69.18350000
S      -43.90940000     -36.31050000     -71.48870000
S      -42.12830000     -34.15710000     -69.94960000
H      -42.73890000     -32.12590000     -68.59080000
