40
Properties=species:S:1:pos:R:3 #=T CELL(abcABC):=T 1.889726e+02=T 90.00000=T Traj:=T positionsangstrom=T Step:=T 0=T Bead:=T pbc="F F F"
C      -44.23150000     -31.74700000     -72.81660000
C      -45.35110000     -31.18170000     -72.19470000
C      -46.58880000     -31.83990000     -72.43410000
C      -46.75510000     -32.92040000     -73.24270000
C      -45.59100000     -33.46430000     -73.85590000
C      -44.33270000     -32.90620000     -73.58720000
H      -43.27430000     -31.14230000     -72.83290000
H      -47.33450000     -31.43290000     -71.74410000
H      -45.70530000     -34.39300000     -74.35790000
H      -43.41150000     -33.15960000     -74.09490000
C      -48.19740000     -33.46930000     -73.45750000
H      -48.58600000     -33.18170000     -74.38610000
H      -48.81030000     -32.97810000     -72.62840000
C      -45.34460000     -29.87170000     -71.34850000
H      -45.01620000     -29.00080000     -72.05680000
H      -46.38270000     -29.58610000     -70.97030000
S      -48.38520000     -35.26200000     -73.20680000
S      -44.17810000     -29.67430000     -69.84990000
C      -48.54140000     -35.37280000     -71.39500000
H      -49.54610000     -35.09180000     -71.04570000
H      -48.36880000     -36.41380000     -71.17070000
C      -45.06590000     -30.65590000     -68.60200000
H      -46.01250000     -30.13760000     -68.39210000
H      -44.32920000     -30.72440000     -67.80010000
C      -45.53420000     -32.12980000     -68.92370000
H      -45.90270000     -32.55800000     -67.94310000
H      -46.37600000     -32.07640000     -69.54300000
C      -47.45590000     -34.61560000     -70.63380000
H      -47.62810000     -34.84510000     -69.58600000
H      -47.48530000     -33.54050000     -70.71230000
C      -46.00920000     -35.00910000     -70.91130000
C      -45.59050000     -36.10560000     -71.66330000
C      -44.90640000     -34.28910000     -70.36210000
H      -46.25480000     -36.80510000     -72.15320000
C      -43.70360000     -34.96080000     -70.66280000
C      -44.61240000     -33.08100000     -69.52350000
C      -43.24570000     -33.00620000     -69.35370000
S      -43.83370000     -36.29780000     -71.66530000
S      -42.20290000     -34.24560000     -69.98260000
H      -42.85460000     -32.23750000     -68.68700000
