40
Properties=species:S:1:pos:R:3 #=T CELL(abcABC):=T 1.889726e+02=T 90.00000=T Traj:=T positionsangstrom=T Step:=T 0=T Bead:=T pbc="F F F"
C      -44.36980000     -31.63420000     -72.85830000
C      -45.50900000     -31.00890000     -72.32840000
C      -46.76620000     -31.51970000     -72.66650000
C      -46.94460000     -32.62220000     -73.49080000
C      -45.82010000     -33.16960000     -74.09290000
C      -44.56010000     -32.65160000     -73.90370000
H      -43.45980000     -31.30830000     -72.53610000
H      -47.66180000     -31.19790000     -72.21230000
H      -45.91380000     -34.08300000     -74.74620000
H      -43.80000000     -33.08020000     -74.57040000
C      -48.26210000     -33.33370000     -73.67160000
H      -48.56980000     -33.28070000     -74.75730000
H      -49.09940000     -32.90320000     -73.18520000
C      -45.46010000     -29.84710000     -71.33890000
H      -45.43070000     -28.85920000     -71.84710000
H      -46.41640000     -29.93560000     -70.76710000
S      -48.19200000     -35.13510000     -73.18020000
S      -44.05530000     -30.14130000     -70.08400000
C      -48.42060000     -35.15940000     -71.35440000
H      -49.31340000     -34.66400000     -71.02880000
H      -48.53820000     -36.21390000     -71.18810000
C      -45.12330000     -30.77080000     -68.68330000
H      -45.92820000     -30.06980000     -68.50270000
H      -44.57130000     -30.61250000     -67.72230000
C      -45.65040000     -32.18940000     -68.82600000
H      -45.93100000     -32.53780000     -67.91320000
H      -46.62600000     -32.25690000     -69.42310000
C      -47.25170000     -34.49500000     -70.62360000
H      -47.55350000     -34.51700000     -69.58070000
H      -47.14430000     -33.45560000     -70.94200000
C      -45.92800000     -35.15870000     -70.73280000
C      -45.54620000     -36.25110000     -71.43490000
C      -44.76770000     -34.34390000     -70.24940000
H      -46.23130000     -36.89480000     -72.01110000
C      -43.56220000     -35.06570000     -70.55310000
C      -44.60910000     -33.16810000     -69.40220000
C      -43.30800000     -33.04440000     -69.02610000
S      -43.81790000     -36.47380000     -71.48740000
S      -42.17830000     -34.21350000     -69.81080000
H      -42.86870000     -32.25070000     -68.49140000
