40
Properties=species:S:1:pos:R:3 #=T CELL(abcABC):=T 1.889726e+02=T 90.00000=T Traj:=T positionsangstrom=T Step:=T 0=T Bead:=T pbc="F F F"
C      -44.68530000     -30.90950000     -72.54280000
C      -45.99700000     -30.62580000     -72.04460000
C      -47.03780000     -31.40280000     -72.47720000
C      -46.87410000     -32.51900000     -73.32050000
C      -45.63270000     -32.71780000     -73.90140000
C      -44.55080000     -31.86170000     -73.53010000
H      -43.81670000     -30.33510000     -72.15140000
H      -48.07030000     -31.13330000     -72.13160000
H      -45.49740000     -33.55850000     -74.64160000
H      -43.61410000     -31.97890000     -74.06850000
C      -48.00320000     -33.46230000     -73.56580000
H      -48.44410000     -33.40010000     -74.52680000
H      -48.84660000     -33.16130000     -72.75350000
C      -46.08270000     -29.51390000     -70.97780000
H      -45.91890000     -28.59530000     -71.51450000
H      -47.06790000     -29.47440000     -70.50100000
S      -47.48750000     -35.23740000     -73.26580000
S      -44.68050000     -29.77930000     -69.74830000
C      -48.14220000     -35.52660000     -71.58720000
H      -49.13430000     -35.01790000     -71.52390000
H      -48.24710000     -36.68800000     -71.53550000
C      -45.34430000     -31.09860000     -68.64880000
H      -46.20580000     -30.72490000     -68.16400000
H      -44.62890000     -31.22090000     -67.85480000
C      -45.65780000     -32.40300000     -69.35090000
H      -46.34810000     -32.90120000     -68.61870000
H      -46.30710000     -32.25890000     -70.26400000
C      -47.28810000     -34.93350000     -70.53490000
H      -47.63000000     -35.25040000     -69.54080000
H      -47.39260000     -33.81900000     -70.71780000
C      -45.81060000     -35.37340000     -70.71650000
C      -45.48250000     -36.63070000     -71.19060000
C      -44.70200000     -34.52100000     -70.45000000
H      -46.16150000     -37.40150000     -71.51740000
C      -43.49200000     -35.13660000     -70.80950000
C      -44.48520000     -33.30760000     -69.65530000
C      -43.14590000     -33.11470000     -69.40830000
S      -43.75480000     -36.78310000     -71.56500000
S      -42.08180000     -34.27210000     -70.19670000
H      -42.71870000     -32.22730000     -68.86500000
