40
Properties=species:S:1:pos:R:3 #=T CELL(abcABC):=T 1.889726e+02=T 90.00000=T Traj:=T positionsangstrom=T Step:=T 0=T Bead:=T pbc="F F F"
C      -47.99810000     -32.40780000     -72.90510000
C      -47.38650000     -31.22730000     -72.52710000
C      -47.42630000     -30.74080000     -71.21080000
C      -47.89530000     -31.54950000     -70.17460000
C      -48.41150000     -32.78100000     -70.56600000
C      -48.54270000     -33.24280000     -71.86080000
H      -48.10860000     -32.76570000     -73.92580000
H      -46.98960000     -29.76620000     -70.90890000
H      -48.85090000     -33.41320000     -69.76700000
H      -49.05390000     -34.26850000     -71.96580000
C      -47.83930000     -31.11300000     -68.75160000
H      -48.64920000     -31.51300000     -68.13370000
H      -48.02920000     -30.12600000     -68.83270000
C      -46.59870000     -30.33520000     -73.59900000
H      -47.12760000     -30.46320000     -74.56390000
H      -46.72590000     -29.21930000     -73.39190000
S      -46.14860000     -31.36430000     -67.97560000
S      -44.77880000     -30.51610000     -73.82680000
C      -45.61840000     -33.03570000     -68.51250000
H      -45.04350000     -33.35710000     -67.60880000
H      -46.48850000     -33.69450000     -68.53640000
C      -44.70010000     -32.38610000     -73.55780000
H      -44.77850000     -32.96880000     -74.50960000
H      -45.55110000     -32.71930000     -73.01640000
C      -43.39740000     -32.80420000     -72.83680000
H      -42.53570000     -32.57060000     -73.51210000
H      -43.26300000     -32.30820000     -71.88750000
C      -44.80330000     -33.08330000     -69.77070000
H      -43.95950000     -32.40660000     -69.69020000
H      -45.40260000     -32.72140000     -70.61210000
C      -44.35750000     -34.54950000     -70.09840000
C      -44.45290000     -35.61860000     -69.21940000
C      -43.78310000     -34.99080000     -71.33170000
H      -44.89910000     -35.63090000     -68.19940000
C      -43.60870000     -36.35340000     -71.42710000
C      -43.43290000     -34.28260000     -72.59530000
C      -43.00840000     -35.18040000     -73.51320000
S      -43.91820000     -37.17340000     -69.94550000
S      -43.09470000     -36.91640000     -73.03800000
H      -42.55070000     -35.03780000     -74.53630000
