40
Properties=species:S:1:pos:R:3 #=T CELL(abcABC):=T 1.889726e+02=T 90.00000=T Traj:=T positionsangstrom=T Step:=T 0=T Bead:=T pbc="F F F"
C      -43.97480000     -31.87850000     -73.02280000
C      -44.99900000     -31.11260000     -72.41190000
C      -46.36200000     -31.46880000     -72.63340000
C      -46.67840000     -32.69820000     -73.30430000
C      -45.57820000     -33.44230000     -73.80710000
C      -44.29930000     -33.06380000     -73.67210000
H      -42.94520000     -31.59560000     -72.81800000
H      -47.13060000     -30.89320000     -72.05110000
H      -45.79730000     -34.34020000     -74.29450000
H      -43.60220000     -33.68360000     -74.20650000
C      -48.12370000     -33.24800000     -73.34390000
H      -48.47470000     -33.30700000     -74.35530000
H      -48.81490000     -32.60850000     -72.83340000
C      -44.60350000     -29.85740000     -71.77070000
H      -43.99900000     -29.30300000     -72.44960000
H      -45.49630000     -29.20360000     -71.64400000
S      -48.51750000     -34.98020000     -72.78340000
S      -43.65490000     -29.87630000     -70.16810000
C      -48.75900000     -34.93460000     -70.95480000
H      -49.73710000     -34.46690000     -70.88080000
H      -48.88350000     -36.04760000     -70.65710000
C      -44.77350000     -30.63340000     -68.90370000
H      -45.62970000     -29.93760000     -68.68410000
H      -44.18060000     -30.75360000     -68.04660000
C      -45.43430000     -32.01430000     -69.22040000
H      -45.93350000     -32.30440000     -68.26990000
H      -46.16430000     -31.82490000     -69.90120000
C      -47.60910000     -34.29540000     -70.22640000
H      -47.85270000     -34.26970000     -69.17170000
H      -47.47380000     -33.24810000     -70.61880000
C      -46.27650000     -35.02560000     -70.34290000
C      -46.06980000     -36.27170000     -70.87280000
C      -44.99040000     -34.37050000     -70.16600000
H      -46.86260000     -36.97370000     -71.16570000
C      -43.95020000     -35.15700000     -70.64060000
C      -44.50120000     -33.10800000     -69.73070000
C      -43.15120000     -32.89780000     -70.02070000
S      -44.45190000     -36.74150000     -71.10870000
S      -42.37510000     -34.39080000     -70.56160000
H      -42.58910000     -32.03530000     -69.76950000
