40
Properties=species:S:1:pos:R:3 #=T CELL(abcABC):=T 1.889726e+02=T 90.00000=T Traj:=T positionsangstrom=T Step:=T 0=T Bead:=T pbc="F F F"
C      -43.99680000     -31.82780000     -72.82310000
C      -45.13900000     -31.04900000     -72.51960000
C      -46.36880000     -31.63780000     -72.70310000
C      -46.60790000     -32.91700000     -73.16410000
C      -45.48090000     -33.72380000     -73.38860000
C      -44.20670000     -33.06280000     -73.38130000
H      -42.96540000     -31.52710000     -72.54750000
H      -47.22820000     -31.03560000     -72.37470000
H      -45.52790000     -34.74120000     -73.71650000
H      -43.26380000     -33.58250000     -73.66140000
C      -48.03910000     -33.31410000     -73.42420000
H      -48.25100000     -33.46100000     -74.51220000
H      -48.64150000     -32.42780000     -73.17060000
C      -45.09380000     -29.76460000     -71.72240000
H      -44.98410000     -28.82350000     -72.32820000
H      -46.02280000     -29.65490000     -71.14260000
S      -48.87030000     -34.74550000     -72.65530000
S      -43.61280000     -29.83690000     -70.57560000
C      -48.84630000     -34.58860000     -70.81160000
H      -49.68710000     -34.08490000     -70.37530000
H      -48.99220000     -35.64940000     -70.47570000
C      -44.21780000     -30.63540000     -69.02170000
H      -44.86710000     -29.93610000     -68.42780000
H      -43.27990000     -30.87580000     -68.52470000
C      -45.02540000     -31.89920000     -69.30560000
H      -45.46870000     -32.14390000     -68.27150000
H      -45.85740000     -31.77520000     -69.92420000
C      -47.54770000     -33.93820000     -70.27710000
H      -47.54210000     -33.89620000     -69.19190000
H      -47.55010000     -32.88190000     -70.68650000
C      -46.27150000     -34.73510000     -70.65930000
C      -46.28520000     -36.08160000     -70.95790000
C      -44.90170000     -34.27190000     -70.36910000
H      -47.02420000     -36.78490000     -71.34960000
C      -43.98020000     -35.30710000     -70.59770000
C      -44.26070000     -33.08550000     -69.72410000
C      -42.89990000     -33.28540000     -69.74800000
S      -44.67230000     -36.76460000     -71.16100000
S      -42.27880000     -34.80000000     -70.45570000
H      -42.07820000     -32.68690000     -69.27560000
