40
Properties=species:S:1:pos:R:3 #=T CELL(abcABC):=T 1.889726e+02=T 90.00000=T Traj:=T positionsangstrom=T Step:=T 0=T Bead:=T pbc="F F F"
C      -44.11080000     -31.73470000     -73.18500000
C      -45.09160000     -31.18110000     -72.32780000
C      -46.38680000     -31.67830000     -72.34180000
C      -46.66300000     -32.77360000     -73.16820000
C      -45.59920000     -33.40330000     -73.84140000
C      -44.32500000     -32.94300000     -73.80240000
H      -43.15150000     -31.26510000     -73.14620000
H      -47.17090000     -31.10700000     -71.86390000
H      -45.74170000     -34.34400000     -74.32190000
H      -43.60200000     -33.33370000     -74.49870000
C      -48.17550000     -33.09260000     -73.30750000
H      -48.63400000     -32.80100000     -74.28240000
H      -48.66690000     -32.43420000     -72.52170000
C      -44.89650000     -29.89660000     -71.64210000
H      -44.44720000     -29.20790000     -72.40030000
H      -45.83480000     -29.45970000     -71.28560000
S      -48.48520000     -34.87360000     -72.95540000
S      -43.67640000     -29.82170000     -70.24010000
C      -48.74150000     -34.82970000     -71.16670000
H      -49.46810000     -34.10720000     -70.87020000
H      -49.07800000     -35.78870000     -70.81730000
C      -44.67150000     -30.70160000     -68.92200000
H      -45.41480000     -30.01170000     -68.52710000
H      -43.90500000     -30.85280000     -68.09610000
C      -45.47110000     -31.92060000     -69.28250000
H      -46.02900000     -32.17620000     -68.36040000
H      -46.26550000     -31.72440000     -70.01590000
C      -47.52460000     -34.40980000     -70.26360000
H      -47.88950000     -34.58860000     -69.25470000
H      -47.29760000     -33.33640000     -70.25880000
C      -46.22950000     -35.10680000     -70.52460000
C      -46.08330000     -36.40640000     -70.89700000
C      -44.97390000     -34.42840000     -70.24440000
H      -46.91010000     -37.08730000     -71.12890000
C      -43.88720000     -35.15100000     -70.65690000
C      -44.57500000     -33.11590000     -69.77870000
C      -43.15810000     -32.93380000     -69.76580000
S      -44.30430000     -36.87440000     -70.96610000
S      -42.35670000     -34.36970000     -70.45340000
H      -42.56830000     -32.01140000     -69.51480000
