40
Properties=species:S:1:pos:R:3 #=T CELL(abcABC):=T 1.889726e+02=T 90.00000=T Traj:=T positionsangstrom=T Step:=T 0=T Bead:=T pbc="F F F"
C      -44.40740000     -31.43020000     -72.93550000
C      -45.58030000     -30.80490000     -72.43240000
C      -46.82140000     -31.43210000     -72.64840000
C      -46.96080000     -32.65330000     -73.32500000
C      -45.81980000     -33.25460000     -73.82170000
C      -44.54450000     -32.68890000     -73.59810000
H      -43.42930000     -30.94690000     -72.90410000
H      -47.73210000     -31.00370000     -72.27750000
H      -45.89330000     -34.38600000     -74.09060000
H      -43.65260000     -33.02420000     -74.10030000
C      -48.31160000     -33.32000000     -73.58050000
H      -48.55190000     -33.25590000     -74.59040000
H      -48.97640000     -32.71980000     -72.95280000
C      -45.39600000     -29.53750000     -71.59180000
H      -45.03430000     -28.70650000     -72.17510000
H      -46.32610000     -29.17970000     -71.07590000
S      -48.53670000     -35.05340000     -73.06820000
S      -44.00940000     -29.78320000     -70.34740000
C      -48.56170000     -35.05000000     -71.19250000
H      -49.33420000     -34.43720000     -70.89710000
H      -48.82840000     -36.13180000     -70.89340000
C      -44.73440000     -30.75800000     -68.92850000
H      -45.52700000     -30.17710000     -68.44180000
H      -43.83770000     -30.91280000     -68.26430000
C      -45.31170000     -32.08800000     -69.29880000
H      -45.93060000     -32.50770000     -68.41730000
H      -46.01270000     -31.98810000     -70.05370000
C      -47.25970000     -34.46910000     -70.49780000
H      -47.42560000     -34.59270000     -69.36560000
H      -47.24290000     -33.37680000     -70.62290000
C      -45.88960000     -35.05700000     -70.74780000
C      -45.68650000     -36.23700000     -71.30660000
C      -44.66580000     -34.38390000     -70.39610000
H      -46.39020000     -36.98630000     -71.67680000
C      -43.57860000     -35.24820000     -70.54960000
C      -44.29370000     -33.16250000     -69.73670000
C      -43.00060000     -33.20530000     -69.30420000
S      -43.95110000     -36.74370000     -71.30220000
S      -42.21430000     -34.67110000     -69.59300000
H      -42.38340000     -32.41520000     -68.82660000
