40
Properties=species:S:1:pos:R:3 #=T CELL(abcABC):=T 1.889726e+02=T 90.00000=T Traj:=T positionsangstrom=T Step:=T 0=T Bead:=T pbc="F F F"
C      -44.09210000     -32.12910000     -72.79810000
C      -45.06500000     -31.23010000     -72.39380000
C      -46.41670000     -31.64020000     -72.55050000
C      -46.81040000     -32.83470000     -73.17130000
C      -45.77050000     -33.65960000     -73.72190000
C      -44.43930000     -33.28590000     -73.50670000
H      -43.00660000     -31.91730000     -72.61830000
H      -47.19650000     -30.94270000     -72.19980000
H      -46.04290000     -34.53780000     -74.29980000
H      -43.62330000     -33.90870000     -73.91080000
C      -48.28340000     -33.17320000     -73.50230000
H      -48.37990000     -33.32600000     -74.57640000
H      -48.97430000     -32.33130000     -73.26930000
C      -44.79020000     -29.81970000     -71.75430000
H      -44.37940000     -29.32170000     -72.59710000
H      -45.75150000     -29.37300000     -71.37510000
S      -48.70570000     -34.82810000     -72.72940000
S      -43.47020000     -29.81130000     -70.48690000
C      -48.78520000     -34.35540000     -70.98890000
H      -49.60180000     -33.58540000     -70.92970000
H      -49.15250000     -35.27650000     -70.51990000
C      -44.23330000     -30.59600000     -69.01850000
H      -44.93530000     -29.91350000     -68.53770000
H      -43.49890000     -30.66340000     -68.18900000
C      -44.98370000     -31.92240000     -69.18920000
H      -45.30790000     -32.31420000     -68.20200000
H      -45.87330000     -31.75290000     -69.78390000
C      -47.50020000     -33.83880000     -70.35380000
H      -47.66400000     -33.85190000     -69.25500000
H      -47.39620000     -32.79600000     -70.63420000
C      -46.25000000     -34.68180000     -70.54550000
C      -46.29060000     -36.01110000     -70.86610000
C      -44.89610000     -34.27670000     -70.25340000
H      -47.22740000     -36.63360000     -70.97790000
C      -43.98530000     -35.29840000     -70.60170000
C      -44.26450000     -33.08080000     -69.78230000
C      -42.90050000     -33.20000000     -69.88380000
S      -44.70920000     -36.71920000     -71.12620000
S      -42.30020000     -34.85630000     -70.35330000
H      -42.13990000     -32.44610000     -69.53420000
