40
Properties=species:S:1:pos:R:3 #=T CELL(abcABC):=T 1.889726e+02=T 90.00000=T Traj:=T positionsangstrom=T Step:=T 0=T Bead:=T pbc="F F F"
C      -49.35660000     -32.94670000     -70.21200000
C      -48.39800000     -33.98620000     -70.09590000
C      -47.95900000     -34.71840000     -71.21330000
C      -48.41830000     -34.25150000     -72.47330000
C      -49.31230000     -33.17670000     -72.56460000
C      -49.82320000     -32.54280000     -71.43290000
H      -49.74990000     -32.58500000     -69.27660000
H      -47.16080000     -35.52200000     -71.13320000
H      -49.61110000     -32.88130000     -73.59060000
H      -50.61510000     -31.80190000     -71.54440000
C      -47.97820000     -34.98070000     -73.73790000
H      -48.89340000     -35.29590000     -74.32820000
H      -47.49800000     -35.96330000     -73.52070000
C      -48.03640000     -34.38440000     -68.68290000
H      -48.67290000     -33.95070000     -67.86540000
H      -47.92670000     -35.38800000     -68.44380000
S      -46.90750000     -34.01670000     -74.76450000
S      -46.34040000     -33.84040000     -68.22630000
C      -45.50790000     -33.92130000     -73.61290000
H      -45.91300000     -34.15800000     -72.61840000
H      -44.81790000     -34.79250000     -73.75420000
C      -46.06890000     -32.18380000     -68.92270000
H      -45.60560000     -31.60870000     -68.10480000
H      -47.06120000     -31.81420000     -69.06820000
C      -45.38920000     -32.22680000     -70.22380000
H      -45.87570000     -32.93900000     -70.87420000
H      -45.36620000     -31.31060000     -70.74210000
C      -44.75890000     -32.55000000     -73.56980000
H      -45.42910000     -31.75410000     -73.12960000
H      -44.54150000     -32.20840000     -74.62240000
C      -43.42640000     -32.74730000     -72.82820000
C      -42.22010000     -32.94210000     -73.49670000
C      -43.13670000     -32.80150000     -71.29940000
H      -42.18580000     -33.07240000     -74.57710000
C      -41.77960000     -33.08370000     -71.00440000
C      -43.99860000     -32.68780000     -70.12540000
C      -43.18910000     -32.83020000     -68.95430000
S      -40.74010000     -33.18640000     -72.43530000
S      -41.50650000     -33.23730000     -69.31610000
H      -43.39330000     -32.56800000     -67.88410000
