40
Properties=species:S:1:pos:R:3 #=T CELL(abcABC):=T 1.889726e+02=T 90.00000=T Traj:=T positionsangstrom=T Step:=T 0=T Bead:=T pbc="F F F"
C      -47.21820000     -30.63480000     -71.96330000
C      -46.28000000     -30.30340000     -70.92620000
C      -46.53100000     -30.82270000     -69.61840000
C      -47.56740000     -31.60540000     -69.31550000
C      -48.56130000     -31.91550000     -70.27490000
C      -48.36960000     -31.42500000     -71.58110000
H      -47.12420000     -30.23800000     -72.98480000
H      -45.83180000     -30.65690000     -68.79140000
H      -49.39790000     -32.49730000     -70.03910000
H      -49.17270000     -31.53690000     -72.32650000
C      -47.60140000     -32.18490000     -67.90320000
H      -48.64890000     -32.23200000     -67.69220000
H      -47.07640000     -31.52990000     -67.23020000
C      -45.14370000     -29.35000000     -71.16110000
H      -45.62670000     -28.41200000     -71.35970000
H      -44.39120000     -29.38520000     -70.32300000
S      -46.94040000     -33.94870000     -67.67830000
S      -44.05010000     -29.77930000     -72.50570000
C      -45.67890000     -33.96460000     -68.96490000
H      -45.35520000     -32.91000000     -69.10910000
H      -44.82780000     -34.48430000     -68.60140000
C      -43.31710000     -31.53300000     -72.32280000
H      -42.78240000     -31.64540000     -71.34400000
H      -42.60310000     -31.62030000     -73.16780000
C      -44.45990000     -32.47200000     -72.44110000
H      -44.94070000     -32.53470000     -71.47440000
H      -45.18060000     -32.16120000     -73.20810000
C      -46.23460000     -34.62550000     -70.31110000
H      -46.67180000     -33.81600000     -70.90570000
H      -47.09420000     -35.23240000     -70.06810000
C      -45.27810000     -35.48180000     -71.16280000
C      -45.28860000     -36.85820000     -70.97000000
C      -44.50330000     -35.12440000     -72.29100000
H      -45.98040000     -37.39230000     -70.24130000
C      -43.93020000     -36.19000000     -72.87480000
C      -43.97410000     -33.88330000     -72.78460000
C      -42.95030000     -34.06780000     -73.77660000
S      -44.44750000     -37.76890000     -72.32810000
S      -42.73390000     -35.79250000     -74.02940000
H      -42.37850000     -33.30420000     -74.33250000
