40
Properties=species:S:1:pos:R:3 #=T CELL(abcABC):=T 1.889726e+02=T 90.00000=T Traj:=T positionsangstrom=T Step:=T 0=T Bead:=T pbc="F F F"
C      -49.19280000     -32.38610000     -70.39770000
C      -48.64770000     -33.60470000     -70.00330000
C      -48.25130000     -34.45540000     -71.02930000
C      -48.56880000     -34.15400000     -72.40180000
C      -49.26480000     -32.96630000     -72.72730000
C      -49.58620000     -32.10830000     -71.71790000
H      -49.46280000     -31.64770000     -69.66940000
H      -47.74080000     -35.39650000     -70.76400000
H      -49.40050000     -32.85400000     -73.76490000
H      -50.11350000     -31.15980000     -71.92040000
C      -48.09300000     -35.10740000     -73.52230000
H      -48.93130000     -35.40740000     -74.16500000
H      -47.75420000     -36.04400000     -73.06840000
C      -48.28650000     -33.95610000     -68.58060000
H      -48.81860000     -33.23530000     -67.87960000
H      -48.74200000     -34.85490000     -68.29780000
S      -46.86450000     -34.26850000     -74.51550000
S      -46.50700000     -33.91050000     -68.26840000
C      -45.33820000     -34.23480000     -73.34990000
H      -45.57100000     -34.52920000     -72.34820000
H      -44.65380000     -35.01950000     -73.76600000
C      -46.09220000     -32.32880000     -69.01750000
H      -45.65350000     -31.68710000     -68.23690000
H      -47.09370000     -31.85380000     -69.20090000
C      -45.32360000     -32.30820000     -70.32390000
H      -45.93590000     -32.89890000     -71.03480000
H      -45.40720000     -31.29380000     -70.73440000
C      -44.63410000     -32.89080000     -73.46910000
H      -45.28240000     -32.11680000     -73.11000000
H      -44.48060000     -32.77800000     -74.54880000
C      -43.24630000     -32.91610000     -72.83890000
C      -42.17130000     -33.40740000     -73.48890000
C      -43.08780000     -32.89280000     -71.42640000
H      -41.98430000     -33.63150000     -74.50390000
C      -41.76250000     -33.20100000     -71.07470000
C      -43.89150000     -32.66520000     -70.23160000
C      -43.11580000     -32.59120000     -69.12520000
S      -40.76650000     -33.53670000     -72.43250000
S      -41.42440000     -32.88680000     -69.42130000
H      -43.55240000     -32.35520000     -68.10450000
