40
Properties=species:S:1:pos:R:3 #=T CELL(abcABC):=T 1.889726e+02=T 90.00000=T Traj:=T positionsangstrom=T Step:=T 0=T Bead:=T pbc="F F F"
C      -43.47140000     -32.86490000     -72.68280000
C      -44.13280000     -31.67110000     -72.42160000
C      -45.46790000     -31.43430000     -72.77920000
C      -46.18290000     -32.47400000     -73.39590000
C      -45.56310000     -33.73500000     -73.56630000
C      -44.21630000     -33.88590000     -73.25940000
H      -42.56140000     -33.11760000     -72.29240000
H      -45.82980000     -30.43790000     -72.68080000
H      -46.24930000     -34.52140000     -73.91040000
H      -43.79090000     -34.92180000     -73.31470000
C      -47.61350000     -32.25250000     -73.79080000
H      -47.70090000     -32.33460000     -74.90290000
H      -47.83360000     -31.21120000     -73.49390000
C      -43.42170000     -30.49850000     -71.80980000
H      -42.64520000     -30.23530000     -72.50990000
H      -43.95870000     -29.53070000     -71.53820000
S      -48.80370000     -33.50780000     -73.09150000
S      -42.42900000     -30.74960000     -70.36660000
C      -48.97770000     -33.10470000     -71.26320000
H      -49.50500000     -32.12210000     -71.24770000
H      -49.61710000     -33.85250000     -70.82250000
C      -43.59920000     -31.02060000     -68.92720000
H      -44.00370000     -29.99990000     -68.62360000
H      -43.00710000     -31.57500000     -68.15060000
C      -44.82010000     -31.89850000     -69.27080000
H      -45.53340000     -31.95920000     -68.49330000
H      -45.37200000     -31.38540000     -70.03190000
C      -47.66390000     -33.09040000     -70.45460000
H      -47.91750000     -32.99060000     -69.40070000
H      -47.09380000     -32.22310000     -70.62170000
C      -46.84580000     -34.30910000     -70.46590000
C      -47.25230000     -35.50980000     -70.94750000
C      -45.45620000     -34.26130000     -70.14620000
H      -48.26010000     -35.68490000     -71.50130000
C      -44.85920000     -35.50300000     -70.46650000
C      -44.47400000     -33.30300000     -69.65100000
C      -43.17380000     -33.84140000     -69.55770000
S      -45.96110000     -36.65350000     -71.13650000
S      -43.17300000     -35.55260000     -70.07070000
H      -42.24920000     -33.35980000     -69.14790000
