40
Properties=species:S:1:pos:R:3 #=T CELL(abcABC):=T 1.889726e+02=T 90.00000=T Traj:=T positionsangstrom=T Step:=T 0=T Bead:=T pbc="F F F"
C      -43.55280000     -33.60290000     -73.20330000
C      -43.66760000     -32.23690000     -72.99990000
C      -44.96230000     -31.70990000     -73.06830000
C      -46.06150000     -32.40290000     -73.63690000
C      -45.91880000     -33.81070000     -73.75010000
C      -44.64050000     -34.39930000     -73.58890000
H      -42.56080000     -34.18880000     -73.09820000
H      -44.99630000     -30.66030000     -72.83690000
H      -46.77320000     -34.35230000     -74.06640000
H      -44.49480000     -35.49180000     -73.49730000
C      -47.40300000     -31.71290000     -73.84240000
H      -47.67270000     -31.71210000     -74.92970000
H      -47.43540000     -30.67040000     -73.42850000
C      -42.59830000     -31.35120000     -72.47940000
H      -41.90910000     -31.16000000     -73.27960000
H      -42.89430000     -30.35260000     -72.17430000
S      -48.85270000     -32.61500000     -73.10300000
S      -41.67050000     -32.06130000     -71.00210000
C      -48.83190000     -32.01250000     -71.43750000
H      -49.01750000     -30.95790000     -71.46540000
H      -49.68270000     -32.47420000     -71.04280000
C      -42.60490000     -31.40530000     -69.52600000
H      -42.64140000     -30.28670000     -69.52650000
H      -41.97260000     -31.72510000     -68.67100000
C      -44.13860000     -31.82260000     -69.51950000
H      -44.66530000     -31.53930000     -68.55360000
H      -44.68140000     -31.33910000     -70.37810000
C      -47.55650000     -32.17740000     -70.55390000
H      -47.80360000     -31.66870000     -69.64910000
H      -46.76890000     -31.52250000     -70.95140000
C      -47.02210000     -33.66810000     -70.34560000
C      -47.77650000     -34.78670000     -70.41770000
C      -45.59840000     -33.93900000     -69.93010000
H      -48.84190000     -34.76130000     -70.73870000
C      -45.43910000     -35.35760000     -69.85210000
C      -44.30440000     -33.31680000     -69.68310000
C      -43.29470000     -34.24460000     -69.50560000
S      -46.87860000     -36.24120000     -70.04590000
S      -43.83610000     -35.89330000     -69.43250000
H      -42.29040000     -33.89910000     -69.21360000
