40
Properties=species:S:1:pos:R:3 #=T CELL(abcABC):=T 1.889726e+02=T 90.00000=T Traj:=T positionsangstrom=T Step:=T 0=T Bead:=T pbc="F F F"
C      -43.64290000     -33.67990000     -73.00370000
C      -43.67190000     -32.28970000     -72.96210000
C      -44.86740000     -31.66740000     -73.35320000
C      -46.05900000     -32.39420000     -73.62740000
C      -45.95590000     -33.76560000     -73.77720000
C      -44.74440000     -34.43080000     -73.39710000
H      -42.75310000     -34.16770000     -72.62110000
H      -45.07540000     -30.60950000     -73.30370000
H      -46.85010000     -34.30290000     -74.06850000
H      -44.69050000     -35.48940000     -73.35810000
C      -47.38920000     -31.67680000     -73.82060000
H      -47.59170000     -31.60670000     -74.89400000
H      -47.37700000     -30.61550000     -73.57260000
C      -42.46550000     -31.48280000     -72.52410000
H      -41.63570000     -31.58040000     -73.29080000
H      -42.68870000     -30.44030000     -72.28630000
S      -48.72410000     -32.57420000     -72.94170000
S      -41.64160000     -32.12290000     -70.95620000
C      -48.62050000     -31.92810000     -71.15180000
H      -48.97160000     -30.88020000     -71.10700000
H      -49.36510000     -32.51900000     -70.52960000
C      -42.77490000     -31.34930000     -69.76870000
H      -42.80370000     -30.27740000     -69.99270000
H      -42.28930000     -31.57450000     -68.82890000
C      -44.20790000     -31.93470000     -69.84880000
H      -44.79270000     -31.43610000     -69.10420000
H      -44.63010000     -31.53690000     -70.70890000
C      -47.22860000     -32.13610000     -70.59260000
H      -47.09390000     -31.54810000     -69.63460000
H      -46.52020000     -31.62970000     -71.26820000
C      -46.90110000     -33.60150000     -70.32630000
C      -47.79190000     -34.59800000     -70.39110000
C      -45.60670000     -34.01860000     -69.91460000
H      -48.84320000     -34.54500000     -70.48580000
C      -45.51430000     -35.42220000     -69.86990000
C      -44.37380000     -33.36920000     -69.72190000
C      -43.37410000     -34.23480000     -69.43710000
S      -47.04580000     -36.16820000     -70.08910000
S      -43.91980000     -35.93650000     -69.52010000
H      -42.33110000     -34.01940000     -69.11080000
