40
Properties=species:S:1:pos:R:3 #=T CELL(abcABC):=T 1.889726e+02=T 90.00000=T Traj:=T positionsangstrom=T Step:=T 0=T Bead:=T pbc="F F F"
C      -43.46500000     -33.12130000     -73.29220000
C      -43.83600000     -31.80740000     -73.00950000
C      -45.20230000     -31.44720000     -73.22560000
C      -46.11580000     -32.34540000     -73.66520000
C      -45.75390000     -33.66120000     -73.84870000
C      -44.44220000     -34.05990000     -73.77070000
H      -42.47890000     -33.41880000     -73.12290000
H      -45.59770000     -30.46630000     -72.98220000
H      -46.41680000     -34.46370000     -74.25810000
H      -44.27360000     -35.06790000     -73.97880000
C      -47.52290000     -31.95580000     -74.02220000
H      -47.70110000     -32.27930000     -75.05540000
H      -47.70090000     -30.91530000     -73.92860000
C      -42.89900000     -30.78390000     -72.39310000
H      -42.01960000     -30.41810000     -73.05870000
H      -43.49880000     -29.84390000     -72.16680000
S      -48.78940000     -32.88060000     -73.05530000
S      -41.98970000     -31.61610000     -71.00430000
C      -48.65750000     -32.24310000     -71.31920000
H      -48.74790000     -31.19320000     -71.29980000
H      -49.47060000     -32.65230000     -70.63680000
C      -42.93700000     -31.30720000     -69.47800000
H      -42.98920000     -30.26150000     -69.28000000
H      -42.31000000     -31.67000000     -68.70980000
C      -44.34430000     -31.93650000     -69.31170000
H      -44.60430000     -31.61580000     -68.24860000
H      -45.03110000     -31.48550000     -69.96550000
C      -47.24650000     -32.49750000     -70.74130000
H      -47.07850000     -31.98050000     -69.76490000
H      -46.49400000     -32.02990000     -71.35170000
C      -46.81150000     -33.90950000     -70.55370000
C      -47.54950000     -35.00460000     -70.74200000
C      -45.48750000     -34.20770000     -69.95690000
H      -48.53450000     -35.20270000     -71.13280000
C      -45.24050000     -35.53820000     -69.89410000
C      -44.40450000     -33.39050000     -69.39650000
C      -43.47900000     -34.27220000     -68.85510000
S      -46.65440000     -36.51120000     -70.35770000
S      -43.78110000     -35.97260000     -69.12340000
H      -42.62390000     -33.97810000     -68.31060000
