40
Properties=species:S:1:pos:R:3 #=T CELL(abcABC):=T 1.889726e+02=T 90.00000=T Traj:=T positionsangstrom=T Step:=T 0=T Bead:=T pbc="F F F"
C      -43.65100000     -34.27410000     -73.35950000
C      -43.46110000     -32.87930000     -73.28980000
C      -44.57820000     -32.05640000     -73.40890000
C      -45.84350000     -32.67120000     -73.72700000
C      -46.03760000     -34.05040000     -73.71950000
C      -44.91820000     -34.87310000     -73.48640000
H      -42.78290000     -34.88600000     -73.29610000
H      -44.52690000     -30.94370000     -73.35200000
H      -47.02050000     -34.41730000     -73.81970000
H      -44.95440000     -35.93260000     -73.43520000
C      -46.99950000     -31.81050000     -74.15590000
H      -47.11330000     -31.88510000     -75.24670000
H      -46.76260000     -30.69740000     -73.93740000
C      -42.17900000     -32.25390000     -72.99370000
H      -41.43660000     -32.59210000     -73.71280000
H      -42.26200000     -31.22740000     -73.02380000
S      -48.59750000     -32.30910000     -73.35640000
S      -41.58490000     -32.59280000     -71.21390000
C      -48.56150000     -31.61400000     -71.69600000
H      -48.58180000     -30.52410000     -71.79970000
H      -49.55470000     -31.85500000     -71.26430000
C      -42.48290000     -31.45570000     -70.09980000
H      -42.34200000     -30.43490000     -70.52050000
H      -41.94000000     -31.48700000     -69.14790000
C      -43.99110000     -31.80700000     -70.03360000
H      -44.52310000     -31.04940000     -69.33940000
H      -44.30330000     -31.69710000     -71.07870000
C      -47.28900000     -31.96270000     -70.94190000
H      -47.36270000     -31.40550000     -70.02210000
H      -46.49920000     -31.50020000     -71.47940000
C      -46.97010000     -33.33190000     -70.43820000
C      -47.95040000     -34.34680000     -70.30780000
C      -45.63240000     -33.73690000     -69.90730000
H      -49.03260000     -34.35200000     -70.59920000
C      -45.73490000     -35.03230000     -69.32010000
C      -44.38250000     -33.15350000     -69.58790000
C      -43.54940000     -34.01580000     -68.94880000
S      -47.32530000     -35.76520000     -69.46170000
S      -44.27790000     -35.56870000     -68.57240000
H      -42.49930000     -33.86500000     -68.77130000
