40
Properties=species:S:1:pos:R:3 #=T CELL(abcABC):=T 1.889726e+02=T 90.00000=T Traj:=T positionsangstrom=T Step:=T 0=T Bead:=T pbc="F F F"
C      -43.67900000     -34.46020000     -72.95940000
C      -43.56760000     -33.08110000     -73.19440000
C      -44.66950000     -32.32780000     -73.72340000
C      -45.93330000     -32.90400000     -73.74580000
C      -46.04860000     -34.29730000     -73.51580000
C      -44.91110000     -35.09200000     -73.16180000
H      -42.82330000     -34.95100000     -72.45300000
H      -44.54360000     -31.25670000     -73.90910000
H      -46.98510000     -34.80430000     -73.73770000
H      -45.08470000     -36.11160000     -72.99770000
C      -47.10660000     -32.18890000     -74.35470000
H      -47.29990000     -32.70660000     -75.29450000
H      -46.85970000     -31.13030000     -74.51520000
C      -42.27430000     -32.32910000     -72.95310000
H      -41.47900000     -32.62460000     -73.64490000
H      -42.48350000     -31.22150000     -72.89250000
S      -48.57810000     -32.42240000     -73.32460000
S      -41.45330000     -32.75090000     -71.26580000
C      -48.27140000     -31.35740000     -71.83740000
H      -48.13480000     -30.33750000     -72.12370000
H      -49.19180000     -31.43670000     -71.30220000
C      -42.30030000     -31.60370000     -70.15570000
H      -42.06290000     -30.52170000     -70.37700000
H      -41.84630000     -31.84100000     -69.15390000
C      -43.81900000     -31.71390000     -70.26980000
H      -44.21920000     -30.95090000     -69.65000000
H      -44.15590000     -31.68950000     -71.28980000
C      -47.14610000     -31.72410000     -70.88650000
H      -47.17710000     -31.03000000     -70.01130000
H      -46.24130000     -31.40220000     -71.43690000
C      -46.91810000     -33.10140000     -70.41060000
C      -47.89640000     -34.08750000     -70.40170000
C      -45.66700000     -33.54150000     -69.88680000
H      -48.90510000     -34.04400000     -70.74430000
C      -45.83940000     -34.80400000     -69.32100000
C      -44.30750000     -33.06140000     -69.69020000
C      -43.59780000     -33.90240000     -68.91690000
S      -47.39400000     -35.54100000     -69.60030000
S      -44.50280000     -35.39040000     -68.41440000
H      -42.55620000     -33.85400000     -68.73000000
