40
Properties=species:S:1:pos:R:3 #=T CELL(abcABC):=T 1.889726e+02=T 90.00000=T Traj:=T positionsangstrom=T Step:=T 0=T Bead:=T pbc="F F F"
C      -43.44330000     -34.01460000     -73.05210000
C      -43.66670000     -32.61730000     -72.78880000
C      -44.94980000     -32.04640000     -72.91290000
C      -45.95380000     -32.83270000     -73.50540000
C      -45.77890000     -34.19020000     -73.73490000
C      -44.50270000     -34.73700000     -73.52840000
H      -42.47060000     -34.45570000     -73.00580000
H      -45.19030000     -31.01690000     -72.88470000
H      -46.55500000     -34.75240000     -74.15090000
H      -44.48330000     -35.82630000     -73.73260000
C      -47.22790000     -32.15690000     -73.99830000
H      -47.45850000     -32.67620000     -74.98670000
H      -47.15880000     -31.06850000     -74.11440000
C      -42.55720000     -31.65530000     -72.49330000
H      -41.92940000     -31.61000000     -73.35340000
H      -42.98650000     -30.62310000     -72.37590000
S      -48.74990000     -32.37400000     -72.95860000
S      -41.43120000     -32.14830000     -71.11940000
C      -48.42050000     -31.37080000     -71.48660000
H      -48.25510000     -30.30130000     -71.70920000
H      -49.30930000     -31.61470000     -70.93380000
C      -42.48110000     -31.65150000     -69.62350000
H      -42.31740000     -30.56090000     -69.44630000
H      -42.09020000     -32.27320000     -68.78000000
C      -44.00540000     -31.90380000     -69.70560000
H      -44.49370000     -31.51870000     -68.79550000
H      -44.58710000     -31.40070000     -70.50240000
C      -47.19760000     -31.73010000     -70.66150000
H      -47.39980000     -31.16310000     -69.77130000
H      -46.24490000     -31.27690000     -71.02620000
C      -46.95570000     -33.24020000     -70.30810000
C      -47.98750000     -34.19710000     -70.33030000
C      -45.71980000     -33.86430000     -69.95840000
H      -49.05120000     -33.99320000     -70.35900000
C      -45.73790000     -35.23250000     -69.80960000
C      -44.31200000     -33.40110000     -69.77020000
C      -43.40510000     -34.32620000     -69.48630000
S      -47.38270000     -35.85160000     -70.04730000
S      -44.15890000     -35.93620000     -69.48150000
H      -42.43350000     -34.13320000     -69.05290000
