40
Properties=species:S:1:pos:R:3 #=T CELL(abcABC):=T 1.889726e+02=T 90.00000=T Traj:=T positionsangstrom=T Step:=T 0=T Bead:=T pbc="F F F"
C      -43.70400000     -34.15230000     -72.94230000
C      -43.59600000     -32.74900000     -73.06860000
C      -44.70950000     -31.99930000     -73.46790000
C      -45.87780000     -32.65870000     -73.80530000
C      -45.98520000     -34.05510000     -73.82210000
C      -44.83670000     -34.80500000     -73.50390000
H      -42.90300000     -34.75630000     -72.49530000
H      -44.57690000     -30.95280000     -73.47270000
H      -46.95510000     -34.44230000     -73.96550000
H      -44.94050000     -35.92690000     -73.49920000
C      -47.07990000     -31.81380000     -74.07900000
H      -47.26270000     -31.72500000     -75.18760000
H      -46.88140000     -30.81720000     -73.86610000
C      -42.27750000     -32.13730000     -72.74640000
H      -41.52720000     -32.32370000     -73.59470000
H      -42.27150000     -31.02530000     -72.69470000
S      -48.71570000     -32.30250000     -73.39050000
S      -41.45900000     -32.68730000     -71.20650000
C      -48.66350000     -31.72390000     -71.68090000
H      -48.86060000     -30.68690000     -71.65250000
H      -49.43750000     -32.27640000     -71.13900000
C      -42.33010000     -31.58570000     -70.03280000
H      -42.14870000     -30.53870000     -70.35980000
H      -41.87250000     -31.76480000     -69.04690000
C      -43.87300000     -31.74840000     -69.98190000
H      -44.26190000     -30.97720000     -69.31710000
H      -44.35280000     -31.46680000     -70.86030000
C      -47.26650000     -32.00390000     -70.96750000
H      -47.33520000     -31.29220000     -70.08930000
H      -46.43400000     -31.65310000     -71.65780000
C      -46.97510000     -33.33800000     -70.42250000
C      -47.98720000     -34.33920000     -70.33210000
C      -45.63720000     -33.73950000     -69.86430000
H      -49.04030000     -34.29230000     -70.61040000
C      -45.69870000     -35.07040000     -69.41050000
C      -44.38960000     -33.12490000     -69.55840000
C      -43.50360000     -33.98760000     -68.97570000
S      -47.32070000     -35.79120000     -69.65110000
S      -44.22250000     -35.56520000     -68.69490000
H      -42.45740000     -33.81990000     -68.62070000
