40
Properties=species:S:1:pos:R:3 #=T CELL(abcABC):=T 1.889726e+02=T 90.00000=T Traj:=T positionsangstrom=T Step:=T 0=T Bead:=T pbc="F F F"
C      -43.07490000     -34.34460000     -72.67290000
C      -43.18480000     -32.99260000     -73.05060000
C      -44.31200000     -32.59980000     -73.82040000
C      -45.42050000     -33.47220000     -73.98600000
C      -45.32910000     -34.74960000     -73.41620000
C      -44.07860000     -35.26410000     -73.00320000
H      -42.26460000     -34.63200000     -72.05190000
H      -44.36720000     -31.56180000     -74.05880000
H      -46.14050000     -35.42600000     -73.58800000
H      -44.00700000     -36.34260000     -72.79110000
C      -46.62270000     -32.99730000     -74.70740000
H      -46.92300000     -33.67800000     -75.40370000
H      -46.53230000     -31.97670000     -75.06890000
C      -42.16580000     -31.92600000     -72.65730000
H      -41.21210000     -32.00740000     -73.17270000
H      -42.66500000     -30.94920000     -72.71010000
S      -48.24070000     -33.10860000     -73.71180000
S      -41.56490000     -32.03300000     -70.92920000
C      -48.35670000     -31.73510000     -72.41510000
H      -48.18260000     -30.80780000     -73.03310000
H      -49.33800000     -31.76820000     -71.89050000
C      -42.79940000     -31.06960000     -69.88260000
H      -42.60770000     -30.00360000     -70.09830000
H      -42.41690000     -31.27550000     -68.82980000
C      -44.32550000     -31.43810000     -70.15550000
H      -44.90110000     -30.63020000     -69.57040000
H      -44.53180000     -31.19720000     -71.19610000
C      -47.30180000     -31.86910000     -71.33090000
H      -47.46690000     -31.05710000     -70.66980000
H      -46.27420000     -31.80000000     -71.77240000
C      -47.35480000     -33.12840000     -70.47230000
C      -48.27930000     -34.13040000     -70.41490000
C      -46.09720000     -33.46220000     -69.75660000
H      -49.22140000     -34.06640000     -70.89870000
C      -46.14250000     -34.70450000     -69.19070000
C      -44.77230000     -32.79310000     -69.64000000
C      -43.99690000     -33.58080000     -68.89490000
S      -47.62530000     -35.49810000     -69.45380000
S      -44.62400000     -35.18990000     -68.44270000
H      -42.99980000     -33.39180000     -68.62210000
