40
Properties=species:S:1:pos:R:3 #=T CELL(abcABC):=T 1.889726e+02=T 90.00000=T Traj:=T positionsangstrom=T Step:=T 0=T Bead:=T pbc="F F F"
C      -46.95840000     -34.27420000     -73.40550000
C      -46.51960000     -35.18930000     -72.43870000
C      -45.15760000     -35.47140000     -72.21970000
C      -44.16560000     -34.73530000     -72.84880000
C      -44.57650000     -33.70510000     -73.73610000
C      -45.92630000     -33.53250000     -74.05970000
H      -47.94370000     -34.29480000     -73.76690000
H      -44.97610000     -36.29710000     -71.53230000
H      -43.79910000     -33.08520000     -74.28830000
H      -46.28000000     -32.80750000     -74.73950000
C      -42.68350000     -34.92730000     -72.63510000
H      -42.29380000     -33.92060000     -72.89390000
H      -42.28170000     -35.72540000     -73.28090000
C      -47.46570000     -36.08590000     -71.70000000
H      -48.20380000     -36.46010000     -72.38200000
H      -46.91400000     -36.97740000     -71.28280000
S      -42.23600000     -35.53520000     -70.98080000
S      -48.37540000     -35.18140000     -70.44240000
C      -42.15870000     -34.04780000     -69.89840000
H      -41.46950000     -34.25270000     -69.02250000
H      -41.66460000     -33.19720000     -70.42390000
C      -46.96630000     -34.98440000     -69.31110000
H      -45.99980000     -35.38480000     -69.71470000
H      -47.17410000     -35.53090000     -68.33360000
C      -46.82310000     -33.48070000     -68.87070000
H      -47.88290000     -33.25050000     -68.65360000
H      -46.26510000     -33.47400000     -67.91530000
C      -43.51390000     -33.53080000     -69.44310000
H      -43.52020000     -33.24000000     -68.40440000
H      -44.41960000     -34.13170000     -69.62340000
C      -43.84440000     -32.29630000     -70.34500000
C      -43.05330000     -31.52900000     -71.16970000
C      -45.25950000     -31.89670000     -70.37510000
H      -42.01520000     -31.57560000     -71.24460000
C      -45.46720000     -30.89790000     -71.35460000
C      -46.48110000     -32.52120000     -69.94540000
C      -47.57950000     -31.90870000     -70.52620000
S      -43.94080000     -30.26470000     -72.00150000
S      -47.14480000     -30.52030000     -71.60410000
H      -48.58980000     -32.29880000     -70.45200000
