40
Properties=species:S:1:pos:R:3 #=T CELL(abcABC):=T 1.889726e+02=T 90.00000=T Traj:=T positionsangstrom=T Step:=T 0=T Bead:=T pbc="F F F"
C      -48.62630000     -32.63540000     -72.98270000
C      -47.71390000     -31.52360000     -72.89170000
C      -47.41170000     -31.02020000     -71.63760000
C      -47.93530000     -31.67700000     -70.51580000
C      -48.69210000     -32.81810000     -70.63030000
C      -49.16640000     -33.26350000     -71.88200000
H      -48.80900000     -33.04860000     -73.99160000
H      -46.78770000     -30.18280000     -71.45570000
H      -49.11920000     -33.32030000     -69.76790000
H      -49.85220000     -34.12120000     -71.91980000
C      -47.60390000     -31.21980000     -69.15090000
H      -47.92910000     -31.95280000     -68.47790000
H      -48.12680000     -30.24630000     -68.88210000
C      -47.05780000     -30.97800000     -74.10170000
H      -47.26790000     -31.72390000     -74.89630000
H      -47.43690000     -30.05920000     -74.42530000
S      -45.87260000     -30.67690000     -68.71540000
S      -45.20300000     -30.91330000     -73.82540000
C      -45.06650000     -32.31670000     -68.54680000
H      -44.07310000     -32.16470000     -68.14710000
H      -45.59170000     -32.85500000     -67.83780000
C      -44.83770000     -32.75180000     -73.60390000
H      -44.82100000     -33.30750000     -74.52890000
H      -45.55210000     -33.11660000     -72.84820000
C      -43.38790000     -32.90020000     -73.01060000
H      -42.59570000     -32.85430000     -73.70480000
H      -43.17440000     -31.99120000     -72.38670000
C      -45.04050000     -33.09710000     -69.89060000
H      -44.46290000     -32.58000000     -70.70260000
H      -46.06200000     -33.19980000     -70.29570000
C      -44.34290000     -34.44220000     -69.88500000
C      -44.46810000     -35.38180000     -68.89300000
C      -43.64970000     -34.92250000     -71.09270000
H      -45.01740000     -35.15790000     -67.96130000
C      -43.31700000     -36.26950000     -70.93190000
C      -43.19230000     -34.32250000     -72.36950000
C      -42.67790000     -35.30890000     -73.20780000
S      -43.84090000     -36.99690000     -69.39690000
S      -42.64650000     -36.87840000     -72.47160000
H      -42.28320000     -35.22490000     -74.21180000
