40
Properties=species:S:1:pos:R:3 #=T CELL(abcABC):=T 1.889726e+02=T 90.00000=T Traj:=T positionsangstrom=T Step:=T 0=T Bead:=T pbc="F F F"
C      -46.87570000     -34.20680000     -73.36980000
C      -46.47630000     -35.17000000     -72.36760000
C      -45.16630000     -35.46570000     -72.16130000
C      -44.16760000     -34.63080000     -72.72630000
C      -44.54020000     -33.56460000     -73.55530000
C      -45.86620000     -33.35970000     -73.89180000
H      -47.91520000     -34.09800000     -73.62070000
H      -44.88770000     -36.26020000     -71.50890000
H      -43.81440000     -32.91390000     -73.96000000
H      -46.13390000     -32.45570000     -74.55250000
C      -42.67200000     -34.91030000     -72.54410000
H      -42.06500000     -34.00950000     -72.55650000
H      -42.28190000     -35.52930000     -73.34640000
C      -47.64040000     -35.98100000     -71.86230000
H      -48.43330000     -36.09170000     -72.55500000
H      -47.34760000     -37.00850000     -71.64310000
S      -42.18770000     -35.70120000     -70.92270000
S      -48.39270000     -35.28150000     -70.37770000
C      -42.00250000     -34.14990000     -69.75550000
H      -41.55800000     -34.58160000     -68.90290000
H      -41.29380000     -33.45510000     -70.14010000
C      -47.03840000     -34.96110000     -69.21840000
H      -46.13150000     -35.43340000     -69.56220000
H      -47.20750000     -35.45030000     -68.28360000
C      -46.74900000     -33.46380000     -68.98890000
H      -47.47460000     -32.99960000     -68.35580000
H      -45.81160000     -33.40230000     -68.39280000
C      -43.36600000     -33.48110000     -69.40410000
H      -43.10510000     -32.88080000     -68.43320000
H      -43.96170000     -34.33100000     -69.14820000
C      -43.92940000     -32.37780000     -70.41070000
C      -43.12020000     -31.52830000     -71.06940000
C      -45.30110000     -32.04240000     -70.65900000
H      -42.07240000     -31.42190000     -70.87060000
C      -45.50460000     -30.95560000     -71.49220000
C      -46.58810000     -32.42640000     -70.08830000
C      -47.59850000     -31.69390000     -70.66640000
S      -44.01050000     -30.28280000     -71.99910000
S      -47.15450000     -30.53570000     -71.80540000
H      -48.63380000     -31.74370000     -70.31690000
