40
Properties=species:S:1:pos:R:3 #=T CELL(abcABC):=T 1.889726e+02=T 90.00000=T Traj:=T positionsangstrom=T Step:=T 0=T Bead:=T pbc="F F F"
C      -43.20550000     -34.09090000     -72.88960000
C      -43.37960000     -32.68730000     -73.19190000
C      -44.55220000     -32.25980000     -73.88790000
C      -45.54800000     -33.23720000     -74.11570000
C      -45.36840000     -34.53720000     -73.79490000
C      -44.19090000     -35.03650000     -73.20960000
H      -42.24960000     -34.41370000     -72.42380000
H      -44.70500000     -31.26650000     -74.03410000
H      -46.18240000     -35.24490000     -73.97590000
H      -44.17930000     -36.11920000     -73.02500000
C      -46.91000000     -32.82010000     -74.71860000
H      -47.10600000     -33.17250000     -75.75430000
H      -46.80610000     -31.70410000     -74.89780000
C      -42.30980000     -31.73190000     -72.70710000
H      -41.42700000     -31.94340000     -73.39300000
H      -42.58650000     -30.71510000     -73.06380000
S      -48.36150000     -33.27420000     -73.77230000
S      -41.70400000     -31.97360000     -70.94110000
C      -48.64820000     -32.13570000     -72.28080000
H      -48.90750000     -31.16030000     -72.70940000
H      -49.52770000     -32.51020000     -71.75940000
C      -42.89320000     -30.93010000     -69.99540000
H      -42.86490000     -29.90930000     -70.32850000
H      -42.45740000     -30.89770000     -69.06060000
C      -44.38200000     -31.38350000     -69.91470000
H      -44.89960000     -30.69560000     -69.22860000
H      -44.87950000     -31.23140000     -70.88520000
C      -47.38890000     -32.10000000     -71.43630000
H      -47.36760000     -31.25070000     -70.68760000
H      -46.50220000     -31.95530000     -72.00440000
C      -47.05430000     -33.39010000     -70.57000000
C      -47.88980000     -34.52910000     -70.59190000
C      -45.98210000     -33.53220000     -69.63680000
H      -48.80790000     -34.72350000     -71.14860000
C      -45.83070000     -34.84490000     -69.16190000
C      -44.71210000     -32.80060000     -69.40370000
C      -43.90380000     -33.37980000     -68.40360000
S      -47.16770000     -35.92960000     -69.59700000
S      -44.54620000     -34.98510000     -68.02740000
H      -42.98410000     -32.96460000     -68.12500000
