40
Properties=species:S:1:pos:R:3 #=T CELL(abcABC):=T 1.889726e+02=T 90.00000=T Traj:=T positionsangstrom=T Step:=T 0=T Bead:=T pbc="F F F"
C      -46.90910000     -33.81080000     -73.25270000
C      -46.81360000     -35.08520000     -72.64170000
C      -45.49680000     -35.62590000     -72.50220000
C      -44.37300000     -35.00330000     -72.97860000
C      -44.50840000     -33.67550000     -73.46490000
C      -45.75590000     -33.09400000     -73.58000000
H      -47.89890000     -33.40680000     -73.38670000
H      -45.46290000     -36.60510000     -71.99880000
H      -43.54270000     -33.24600000     -73.96700000
H      -45.79760000     -32.07380000     -73.93570000
C      -43.00180000     -35.63030000     -72.92380000
H      -42.27490000     -34.98430000     -73.44120000
H      -42.79130000     -36.56240000     -73.44750000
C      -47.94300000     -35.87580000     -72.10120000
H      -48.89980000     -35.80420000     -72.58030000
H      -47.62870000     -36.97140000     -71.97840000
S      -42.40610000     -35.93300000     -71.20950000
S      -48.25030000     -35.15950000     -70.46770000
C      -41.98900000     -34.22620000     -70.62800000
H      -41.19710000     -34.35240000     -69.87540000
H      -41.50380000     -33.76520000     -71.51900000
C      -46.69780000     -35.03520000     -69.47120000
H      -45.94820000     -35.26930000     -70.18760000
H      -46.65170000     -35.71620000     -68.64970000
C      -46.50980000     -33.67590000     -68.84190000
H      -47.34270000     -33.55420000     -68.14010000
H      -45.62540000     -33.90240000     -68.22070000
C      -43.25650000     -33.64040000     -70.01490000
H      -42.98450000     -33.32670000     -68.98390000
H      -43.93600000     -34.43570000     -69.83100000
C      -43.84200000     -32.45950000     -70.64770000
C      -43.08420000     -31.52200000     -71.33370000
C      -45.24640000     -32.04770000     -70.54590000
H      -42.02510000     -31.63320000     -71.64460000
C      -45.40480000     -30.78420000     -71.08010000
C      -46.44570000     -32.44540000     -69.75310000
C      -47.43150000     -31.52220000     -69.90870000
S      -43.98680000     -30.17030000     -71.83200000
S      -47.07080000     -30.14780000     -70.90250000
H      -48.34250000     -31.46890000     -69.26670000
