40
Properties=species:S:1:pos:R:3 #=T CELL(abcABC):=T 1.889726e+02=T 90.00000=T Traj:=T positionsangstrom=T Step:=T 0=T Bead:=T pbc="F F F"
C      -46.87630000     -34.29160000     -73.45030000
C      -46.47990000     -35.32940000     -72.62250000
C      -45.10500000     -35.61840000     -72.35820000
C      -44.08700000     -34.87620000     -73.01370000
C      -44.53060000     -33.85100000     -73.85110000
C      -45.91890000     -33.57210000     -74.05490000
H      -47.97490000     -34.19240000     -73.61160000
H      -44.87150000     -36.46380000     -71.71680000
H      -43.77940000     -33.29320000     -74.32750000
H      -46.11110000     -32.74640000     -74.75470000
C      -42.65090000     -35.17490000     -72.68860000
H      -41.96560000     -34.32100000     -72.93310000
H      -42.40610000     -36.15200000     -73.11450000
C      -47.50310000     -36.09090000     -71.86510000
H      -48.43310000     -36.42420000     -72.38450000
H      -47.14410000     -36.97080000     -71.29100000
S      -42.37510000     -35.62270000     -70.93850000
S      -48.14090000     -35.00890000     -70.46890000
C      -42.07840000     -34.10620000     -69.94630000
H      -41.37830000     -34.37590000     -69.15210000
H      -41.40640000     -33.45810000     -70.62070000
C      -46.62240000     -34.73730000     -69.36450000
H      -45.72470000     -34.77880000     -70.01450000
H      -46.56040000     -35.63890000     -68.62280000
C      -46.72140000     -33.38440000     -68.69990000
H      -47.69530000     -33.25040000     -68.20520000
H      -45.88250000     -33.41970000     -67.90330000
C      -43.39760000     -33.51890000     -69.49460000
H      -43.33710000     -32.96020000     -68.51780000
H      -44.15230000     -34.26220000     -69.44190000
C      -43.94530000     -32.37080000     -70.38450000
C      -43.19950000     -31.50010000     -71.14860000
C      -45.37370000     -31.96750000     -70.46160000
H      -42.13640000     -31.47840000     -71.31470000
C      -45.61160000     -30.97030000     -71.40260000
C      -46.56020000     -32.30790000     -69.66390000
C      -47.63940000     -31.52940000     -70.04840000
S      -44.13760000     -30.38410000     -72.11380000
S      -47.22140000     -30.41890000     -71.43070000
H      -48.63280000     -31.67190000     -69.65940000
