40
Properties=species:S:1:pos:R:3 #=T CELL(abcABC):=T 1.889726e+02=T 90.00000=T Traj:=T positionsangstrom=T Step:=T 0=T Bead:=T pbc="F F F"
C      -46.63030000     -33.73900000     -73.38890000
C      -46.48020000     -34.87380000     -72.58400000
C      -45.10490000     -35.34060000     -72.28790000
C      -43.98370000     -34.66730000     -72.88020000
C      -44.21880000     -33.60500000     -73.78310000
C      -45.47600000     -33.13900000     -74.01650000
H      -47.61980000     -33.40250000     -73.59550000
H      -44.96050000     -36.10230000     -71.51620000
H      -43.28170000     -33.13490000     -74.15460000
H      -45.65710000     -32.26410000     -74.62310000
C      -42.63990000     -35.37730000     -72.60310000
H      -41.87720000     -34.81260000     -73.20380000
H      -42.67380000     -36.31540000     -73.25960000
C      -47.65660000     -35.56470000     -72.02870000
H      -48.55000000     -35.37430000     -72.69710000
H      -47.48890000     -36.67980000     -71.97620000
S      -42.26160000     -35.77150000     -70.93730000
S      -48.37590000     -34.94980000     -70.36040000
C      -42.04840000     -34.20530000     -70.00620000
H      -41.58950000     -34.63640000     -69.03270000
H      -41.29520000     -33.62660000     -70.52350000
C      -46.94910000     -34.93580000     -69.29960000
H      -46.05470000     -35.23770000     -69.89760000
H      -47.03770000     -35.66440000     -68.45800000
C      -46.71570000     -33.55460000     -68.67090000
H      -47.45630000     -33.12340000     -67.92450000
H      -45.78130000     -33.59670000     -68.09970000
C      -43.42300000     -33.65550000     -69.67540000
H      -43.44710000     -33.23190000     -68.67250000
H      -44.13700000     -34.48890000     -69.51900000
C      -43.95430000     -32.59820000     -70.56480000
C      -43.30140000     -31.87910000     -71.53120000
C      -45.35400000     -32.16600000     -70.50480000
H      -42.26120000     -32.08710000     -71.89270000
C      -45.62440000     -31.10430000     -71.39430000
C      -46.52850000     -32.41860000     -69.67320000
C      -47.63010000     -31.65060000     -70.02800000
S      -44.23010000     -30.57670000     -72.29640000
S      -47.22120000     -30.41600000     -71.17500000
H      -48.55860000     -31.80520000     -69.57410000
