40
Properties=species:S:1:pos:R:3 #=T CELL(abcABC):=T 1.889726e+02=T 90.00000=T Traj:=T positionsangstrom=T Step:=T 0=T Bead:=T pbc="F F F"
C      -46.50640000     -33.85170000     -73.34430000
C      -46.56840000     -35.11070000     -72.71200000
C      -45.32550000     -35.81710000     -72.48960000
C      -44.06720000     -35.31020000     -73.06000000
C      -44.13450000     -34.07430000     -73.64330000
C      -45.29340000     -33.33580000     -73.79300000
H      -47.43610000     -33.33710000     -73.68360000
H      -45.37400000     -36.79420000     -71.95680000
H      -43.20190000     -33.66050000     -74.18220000
H      -45.30730000     -32.30590000     -74.32590000
C      -42.80560000     -36.06240000     -72.85950000
H      -42.23040000     -35.83610000     -73.80720000
H      -43.01320000     -37.14960000     -72.89660000
C      -47.80760000     -35.80770000     -72.18860000
H      -48.72720000     -35.68910000     -72.85990000
H      -47.64650000     -36.86800000     -72.01910000
S      -41.91240000     -35.79730000     -71.25190000
S      -48.29380000     -34.99960000     -70.57140000
C      -42.02090000     -33.99160000     -70.85640000
H      -41.12140000     -33.72770000     -70.30400000
H      -41.97690000     -33.35220000     -71.80820000
C      -46.83070000     -35.05450000     -69.52240000
H      -45.95360000     -35.38540000     -70.11430000
H      -46.99140000     -35.86780000     -68.76260000
C      -46.48760000     -33.74260000     -68.75260000
H      -47.28420000     -33.55430000     -67.99430000
H      -45.49020000     -33.78670000     -68.21880000
C      -43.28750000     -33.64180000     -70.12030000
H      -43.05340000     -33.48860000     -69.04470000
H      -44.01850000     -34.48140000     -70.02030000
C      -43.97380000     -32.30930000     -70.59610000
C      -43.42750000     -31.37440000     -71.42740000
C      -45.35750000     -31.86810000     -70.24710000
H      -42.32330000     -31.35050000     -71.69420000
C      -45.77230000     -30.67880000     -70.83360000
C      -46.49690000     -32.50510000     -69.58750000
C      -47.60160000     -31.63110000     -69.69670000
S      -44.42640000     -29.89810000     -71.69980000
S      -47.44060000     -30.29110000     -70.80780000
H      -48.52790000     -31.94030000     -69.21430000
