40
Properties=species:S:1:pos:R:3 #=T CELL(abcABC):=T 1.889726e+02=T 90.00000=T Traj:=T positionsangstrom=T Step:=T 0=T Bead:=T pbc="F F F"
C      -48.59120000     -32.50460000     -72.98700000
C      -47.52130000     -31.59700000     -72.87040000
C      -47.27290000     -31.05290000     -71.65410000
C      -48.02060000     -31.45380000     -70.54880000
C      -49.07490000     -32.33650000     -70.65850000
C      -49.28120000     -32.95420000     -71.88410000
H      -48.76530000     -32.94070000     -73.95550000
H      -46.49530000     -30.35140000     -71.44000000
H      -49.56810000     -32.70330000     -69.77160000
H      -50.07450000     -33.70780000     -71.99100000
C      -47.74060000     -30.83590000     -69.23140000
H      -48.30080000     -31.50910000     -68.53140000
H      -48.23090000     -29.85670000     -69.12240000
C      -46.81880000     -31.03320000     -74.10610000
H      -47.23600000     -31.61860000     -74.96740000
H      -47.06130000     -29.99180000     -74.37540000
S      -45.97430000     -30.56910000     -68.73940000
S      -45.03520000     -31.14570000     -74.08540000
C      -45.27070000     -32.32190000     -68.77630000
H      -44.23940000     -32.16770000     -68.34170000
H      -45.80650000     -32.89830000     -67.98910000
C      -44.90450000     -32.98550000     -73.65500000
H      -45.21880000     -33.44150000     -74.59480000
H      -45.54990000     -33.19220000     -72.80360000
C      -43.49920000     -33.26260000     -73.24090000
H      -42.84600000     -33.18110000     -74.10620000
H      -43.14250000     -32.43230000     -72.55960000
C      -45.26880000     -33.11290000     -70.13360000
H      -44.90020000     -32.61190000     -71.00710000
H      -46.28550000     -33.39960000     -70.42330000
C      -44.58150000     -34.47200000     -69.98020000
C      -44.56800000     -35.24310000     -68.85970000
C      -43.74580000     -34.99200000     -71.08210000
H      -45.14330000     -35.00830000     -67.93920000
C      -43.31300000     -36.29530000     -70.81320000
C      -43.33340000     -34.54970000     -72.43300000
C      -42.49560000     -35.49550000     -73.00350000
S      -43.74980000     -36.85720000     -69.23820000
S      -42.32520000     -37.04100000     -72.03930000
H      -42.04210000     -35.57330000     -74.02820000
