40
Properties=species:S:1:pos:R:3 #=T CELL(abcABC):=T 1.889726e+02=T 90.00000=T Traj:=T positionsangstrom=T Step:=T 0=T Bead:=T pbc="F F F"
C      -46.63360000     -33.60990000     -73.06910000
C      -46.70850000     -34.96920000     -72.59900000
C      -45.45800000     -35.69090000     -72.54720000
C      -44.22340000     -35.16500000     -72.99350000
C      -44.27630000     -33.88020000     -73.57310000
C      -45.48630000     -33.20480000     -73.67490000
H      -47.52910000     -33.10230000     -73.19650000
H      -45.50140000     -36.75480000     -72.34720000
H      -43.34700000     -33.45110000     -73.87120000
H      -45.55370000     -32.36590000     -74.29520000
C      -42.94010000     -36.04590000     -72.90830000
H      -42.19040000     -35.66230000     -73.63200000
H      -43.20440000     -37.09890000     -73.01490000
C      -47.95730000     -35.58710000     -72.06560000
H      -48.75670000     -35.36690000     -72.76720000
H      -47.99010000     -36.69660000     -72.23150000
S      -42.23020000     -35.90150000     -71.24250000
S      -48.40660000     -35.03740000     -70.41120000
C      -42.05210000     -34.07010000     -70.88510000
H      -41.06340000     -33.98880000     -70.35330000
H      -41.94060000     -33.56580000     -71.90850000
C      -46.71840000     -35.06490000     -69.48480000
H      -45.92680000     -35.51740000     -70.15230000
H      -46.75660000     -35.83240000     -68.66080000
C      -46.41730000     -33.71070000     -68.79270000
H      -47.15980000     -33.49940000     -67.98600000
H      -45.49050000     -33.93770000     -68.24370000
C      -43.22880000     -33.59770000     -70.01430000
H      -42.79470000     -33.51300000     -68.97520000
H      -44.00540000     -34.31230000     -70.02960000
C      -43.83830000     -32.29810000     -70.57100000
C      -43.21340000     -31.39870000     -71.36590000
C      -45.21840000     -31.88940000     -70.34620000
H      -42.23290000     -31.52310000     -71.73840000
C      -45.57690000     -30.70760000     -70.98700000
C      -46.33540000     -32.53010000     -69.66370000
C      -47.47980000     -31.88730000     -69.96030000
S      -44.12750000     -29.92720000     -71.79950000
S      -47.30330000     -30.45000000     -70.96720000
H      -48.44250000     -32.12840000     -69.38240000
