40
Properties=species:S:1:pos:R:3 #=T CELL(abcABC):=T 1.889726e+02=T 90.00000=T Traj:=T positionsangstrom=T Step:=T 0=T Bead:=T pbc="F F F"
C      -46.54890000     -34.06200000     -73.39550000
C      -46.43430000     -35.25630000     -72.69440000
C      -45.17470000     -35.91480000     -72.54150000
C      -44.03470000     -35.31510000     -73.11370000
C      -44.17750000     -34.04810000     -73.71230000
C      -45.39450000     -33.41760000     -73.84240000
H      -47.56510000     -33.70570000     -73.51570000
H      -45.16760000     -36.91220000     -72.19290000
H      -43.28110000     -33.56470000     -74.09610000
H      -45.56750000     -32.52570000     -74.46470000
C      -42.68030000     -35.93490000     -73.06060000
H      -41.99210000     -35.53760000     -73.78720000
H      -42.69380000     -37.02140000     -73.26020000
C      -47.67830000     -35.88230000     -72.07830000
H      -48.58220000     -35.73900000     -72.71750000
H      -47.49940000     -36.92640000     -71.83110000
S      -41.92320000     -35.59090000     -71.49620000
S      -48.23530000     -34.93780000     -70.48200000
C      -42.06080000     -33.83600000     -70.97220000
H      -41.08690000     -33.75570000     -70.45240000
H      -41.93160000     -33.27570000     -71.89720000
C      -46.61070000     -34.96630000     -69.53190000
H      -45.73370000     -34.96460000     -70.23800000
H      -46.55790000     -35.88240000     -68.88650000
C      -46.40430000     -33.80930000     -68.59720000
H      -47.18730000     -33.78830000     -67.87600000
H      -45.47680000     -33.84990000     -68.07880000
C      -43.30190000     -33.46680000     -70.15000000
H      -43.01930000     -33.43450000     -69.09640000
H      -43.99560000     -34.29650000     -70.33290000
C      -44.05570000     -32.20880000     -70.57270000
C      -43.49700000     -31.29350000     -71.33540000
C      -45.43970000     -31.93980000     -70.25250000
H      -42.44590000     -31.31040000     -71.61820000
C      -45.88450000     -30.80240000     -70.88210000
C      -46.48870000     -32.50080000     -69.41030000
C      -47.65480000     -31.74710000     -69.49460000
S      -44.53590000     -29.98680000     -71.79910000
S      -47.50920000     -30.38490000     -70.57180000
H      -48.64790000     -32.01350000     -69.09350000
