40
Properties=species:S:1:pos:R:3 #=T CELL(abcABC):=T 1.889726e+02=T 90.00000=T Traj:=T positionsangstrom=T Step:=T 0=T Bead:=T pbc="F F F"
C      -46.58620000     -33.75460000     -73.02010000
C      -46.57360000     -35.02930000     -72.49390000
C      -45.37980000     -35.75120000     -72.59710000
C      -44.23520000     -35.22650000     -73.22000000
C      -44.33000000     -33.95250000     -73.85910000
C      -45.49410000     -33.24180000     -73.71430000
H      -47.48180000     -33.13020000     -73.08130000
H      -45.36390000     -36.75670000     -72.37240000
H      -43.50930000     -33.42890000     -74.26480000
H      -45.58400000     -32.30980000     -74.24860000
C      -42.87520000     -36.03260000     -73.18560000
H      -42.26030000     -35.73720000     -74.06890000
H      -43.01530000     -37.13840000     -73.21570000
C      -47.84050000     -35.70550000     -72.05120000
H      -48.70050000     -35.37840000     -72.66200000
H      -47.74760000     -36.83470000     -72.11900000
S      -41.86170000     -35.77830000     -71.60190000
S      -48.06070000     -35.28660000     -70.23570000
C      -42.00340000     -33.90520000     -71.34470000
H      -41.12300000     -33.66470000     -70.72010000
H      -41.98940000     -33.35190000     -72.30810000
C      -46.46040000     -35.19920000     -69.46200000
H      -45.67400000     -35.44950000     -70.15700000
H      -46.48620000     -35.93440000     -68.72340000
C      -46.20620000     -33.84720000     -68.80530000
H      -46.87330000     -33.79750000     -67.85890000
H      -45.18600000     -33.89530000     -68.37030000
C      -43.36630000     -33.56590000     -70.52420000
H      -43.19780000     -33.59150000     -69.43860000
H      -44.04080000     -34.44780000     -70.71730000
C      -44.01100000     -32.28000000     -70.88040000
C      -43.48560000     -31.23960000     -71.61220000
C      -45.39730000     -31.98560000     -70.43760000
H      -42.50720000     -31.05690000     -72.06870000
C      -45.77110000     -30.63340000     -70.67380000
C      -46.44890000     -32.65700000     -69.71320000
C      -47.58250000     -31.88290000     -69.53240000
S      -44.62700000     -29.81520000     -71.64280000
S      -47.43280000     -30.22430000     -70.25100000
H      -48.46660000     -32.20640000     -68.94840000
