40
Properties=species:S:1:pos:R:3 #=T CELL(abcABC):=T 1.889726e+02=T 90.00000=T Traj:=T positionsangstrom=T Step:=T 0=T Bead:=T pbc="F F F"
C      -47.23500000     -35.43190000     -73.94750000
C      -46.16260000     -34.62360000     -73.51910000
C      -46.44480000     -33.54420000     -72.61820000
C      -47.82340000     -33.25070000     -72.28760000
C      -48.80650000     -34.07620000     -72.80010000
C      -48.52760000     -35.17650000     -73.64380000
H      -46.90320000     -36.33630000     -74.59520000
H      -45.67780000     -32.93370000     -72.19640000
H      -49.81420000     -33.98940000     -72.43050000
H      -49.38730000     -35.86010000     -73.90950000
C      -48.08520000     -32.23780000     -71.24320000
H      -48.85460000     -31.49170000     -71.57950000
H      -47.12360000     -31.77690000     -70.93820000
C      -44.76220000     -35.03120000     -73.76250000
H      -44.67610000     -35.52420000     -74.79180000
H      -44.00250000     -34.20710000     -73.81560000
S      -48.72740000     -33.01890000     -69.64450000
S      -44.31140000     -36.45740000     -72.64430000
C      -47.29960000     -32.34490000     -68.58390000
H      -47.27480000     -31.28240000     -68.76800000
H      -47.63610000     -32.53070000     -67.61910000
C      -44.85270000     -35.85270000     -70.91600000
H      -45.30560000     -36.74010000     -70.50770000
H      -45.56940000     -34.98750000     -71.00860000
C      -43.61850000     -35.36060000     -70.14440000
H      -43.88990000     -35.28260000     -69.08320000
H      -42.77850000     -36.03170000     -70.21210000
C      -45.91750000     -33.04190000     -68.81150000
H      -46.12300000     -33.96580000     -69.31780000
H      -45.46860000     -33.29800000     -67.84330000
C      -44.92630000     -32.14400000     -69.61710000
C      -45.00140000     -30.75620000     -69.69380000
C      -43.77000000     -32.66720000     -70.25140000
H      -45.69690000     -30.09490000     -69.19380000
C      -43.10250000     -31.62830000     -70.86780000
C      -43.22780000     -33.99620000     -70.68090000
C      -42.13480000     -33.85500000     -71.51990000
S      -43.68730000     -30.02520000     -70.54570000
S      -41.81230000     -32.15330000     -71.90560000
H      -41.41450000     -34.64900000     -71.87600000
