40
Properties=species:S:1:pos:R:3 #=T CELL(abcABC):=T 1.889726e+02=T 90.00000=T Traj:=T positionsangstrom=T Step:=T 0=T Bead:=T pbc="F F F"
C      -46.90810000     -34.27160000     -73.61950000
C      -46.64810000     -35.44090000     -72.85550000
C      -45.30280000     -35.95320000     -72.92520000
C      -44.33300000     -35.32540000     -73.71060000
C      -44.59980000     -34.13630000     -74.41640000
C      -45.88720000     -33.58650000     -74.31750000
H      -47.92500000     -33.75850000     -73.59700000
H      -45.12710000     -36.84380000     -72.27250000
H      -43.81790000     -33.55870000     -75.00830000
H      -46.17430000     -32.65650000     -74.84960000
C      -42.91410000     -35.87990000     -73.73440000
H      -42.44250000     -35.57520000     -74.62900000
H      -42.83540000     -36.95690000     -73.77670000
C      -47.65330000     -36.10840000     -71.95760000
H      -48.64190000     -36.13600000     -72.40480000
H      -47.32810000     -37.14880000     -71.65950000
S      -41.88800000     -35.51600000     -72.26610000
S      -48.04030000     -35.17230000     -70.32830000
C      -42.28590000     -33.66000000     -71.91480000
H      -41.39250000     -33.15200000     -71.55240000
H      -42.62720000     -33.12500000     -72.85320000
C      -46.40290000     -35.28550000     -69.48440000
H      -45.70870000     -35.51380000     -70.28350000
H      -46.34260000     -36.12480000     -68.76120000
C      -46.02370000     -34.06690000     -68.62300000
H      -46.52780000     -34.22810000     -67.66140000
H      -44.92490000     -34.14850000     -68.34870000
C      -43.38040000     -33.52590000     -70.78290000
H      -42.84800000     -33.61090000     -69.78250000
H      -44.14150000     -34.29880000     -70.90080000
C      -44.15280000     -32.18860000     -70.87000000
C      -43.71160000     -31.03380000     -71.54900000
C      -45.31130000     -31.93400000     -70.05740000
H      -42.90130000     -30.85210000     -72.22480000
C      -45.71190000     -30.61830000     -70.16400000
C      -46.25090000     -32.66850000     -69.20110000
C      -47.28510000     -31.84270000     -68.71390000
S      -44.66190000     -29.62090000     -71.11660000
S      -47.10730000     -30.12430000     -69.25350000
H      -48.03440000     -32.26850000     -68.07730000
