40
Properties=species:S:1:pos:R:3 #=T CELL(abcABC):=T 1.889726e+02=T 90.00000=T Traj:=T positionsangstrom=T Step:=T 0=T Bead:=T pbc="F F F"
C      -48.79470000     -32.30690000     -73.15610000
C      -47.77150000     -31.41000000     -73.08040000
C      -47.29860000     -30.96380000     -71.81700000
C      -47.98920000     -31.21150000     -70.67030000
C      -48.98440000     -32.23240000     -70.73460000
C      -49.39780000     -32.73480000     -71.97520000
H      -49.30730000     -32.50110000     -74.10000000
H      -46.46120000     -30.27170000     -71.92220000
H      -49.50030000     -32.57740000     -69.83720000
H      -50.03480000     -33.61210000     -72.03620000
C      -47.73800000     -30.56900000     -69.37820000
H      -48.39950000     -30.91350000     -68.54050000
H      -47.89120000     -29.43220000     -69.47840000
C      -46.98210000     -31.07400000     -74.33880000
H      -47.40870000     -31.60560000     -75.20830000
H      -46.91810000     -30.01700000     -74.35680000
S      -45.92770000     -30.70150000     -68.92350000
S      -45.19850000     -31.53080000     -74.25630000
C      -45.72120000     -32.50610000     -68.80870000
H      -45.08800000     -32.64240000     -67.92980000
H      -46.70030000     -32.90140000     -68.66400000
C      -45.11470000     -33.22650000     -73.55890000
H      -45.35020000     -34.03840000     -74.25690000
H      -45.73260000     -33.42890000     -72.66730000
C      -43.57450000     -33.34560000     -73.02830000
H      -42.97820000     -33.22430000     -73.94470000
H      -43.48230000     -32.53280000     -72.28430000
C      -45.03010000     -33.01740000     -70.05750000
H      -44.34030000     -32.23470000     -70.36630000
H      -45.80990000     -33.14030000     -70.79930000
C      -44.37420000     -34.34020000     -69.92140000
C      -44.45060000     -35.12570000     -68.81450000
C      -43.69510000     -35.06080000     -71.03570000
H      -44.95610000     -34.95950000     -67.87470000
C      -43.25940000     -36.32900000     -70.65020000
C      -43.14600000     -34.63140000     -72.31150000
C      -42.33050000     -35.60120000     -72.88830000
S      -43.62940000     -36.67950000     -69.00570000
S      -42.15500000     -37.04080000     -71.79640000
H      -41.90620000     -35.42570000     -73.84250000
