40
Properties=species:S:1:pos:R:3 #=T CELL(abcABC):=T 1.889726e+02=T 90.00000=T Traj:=T positionsangstrom=T Step:=T 0=T Bead:=T pbc="F F F"
C      -46.98330000     -34.55810000     -73.50620000
C      -46.63330000     -35.64840000     -72.67840000
C      -45.32790000     -36.13650000     -72.72500000
C      -44.37670000     -35.41910000     -73.51770000
C      -44.73110000     -34.30590000     -74.30540000
C      -46.02400000     -33.83220000     -74.28970000
H      -47.99850000     -34.20210000     -73.48850000
H      -45.03440000     -37.06620000     -72.22230000
H      -43.96470000     -33.75710000     -74.83650000
H      -46.26030000     -32.99300000     -74.86260000
C      -42.93270000     -35.95690000     -73.59000000
H      -42.45600000     -35.56460000     -74.45200000
H      -42.98980000     -37.00580000     -73.64110000
C      -47.69750000     -36.23540000     -71.69220000
H      -48.66810000     -36.32620000     -72.23320000
H      -47.21600000     -37.11710000     -71.36520000
S      -41.78630000     -35.46520000     -72.20060000
S      -48.17690000     -35.11020000     -70.30170000
C      -42.25450000     -33.67990000     -71.78620000
H      -41.30130000     -33.33590000     -71.29660000
H      -42.33800000     -33.09010000     -72.70330000
C      -46.38490000     -34.92840000     -69.78960000
H      -45.79100000     -34.75220000     -70.68150000
H      -46.12300000     -35.93580000     -69.45390000
C      -46.07250000     -33.92150000     -68.74690000
H      -46.69410000     -34.04270000     -67.82990000
H      -45.02610000     -34.08790000     -68.43410000
C      -43.43980000     -33.53830000     -70.80340000
H      -43.06590000     -33.68130000     -69.72680000
H      -44.15000000     -34.41560000     -70.90750000
C      -44.09400000     -32.15800000     -70.87370000
C      -43.61750000     -31.12300000     -71.61200000
C      -45.25790000     -31.78500000     -70.07630000
H      -42.64730000     -31.08530000     -72.13520000
C      -45.62320000     -30.48210000     -70.21960000
C      -46.14900000     -32.47140000     -69.22990000
C      -47.22960000     -31.74450000     -68.77190000
S      -44.55350000     -29.64010000     -71.36310000
S      -47.15680000     -30.05470000     -69.36290000
H      -47.98510000     -31.95000000     -68.12020000
