40
Properties=species:S:1:pos:R:3 #=T CELL(abcABC):=T 1.889726e+02=T 90.00000=T Traj:=T positionsangstrom=T Step:=T 0=T Bead:=T pbc="F F F"
C      -46.76260000     -33.99690000     -73.47530000
C      -46.51250000     -35.25780000     -72.81280000
C      -45.22110000     -35.81680000     -72.85510000
C      -44.27180000     -35.30310000     -73.73450000
C      -44.56840000     -34.22480000     -74.56180000
C      -45.77720000     -33.57240000     -74.38820000
H      -47.67090000     -33.42720000     -73.28220000
H      -45.04170000     -36.77360000     -72.30100000
H      -43.84520000     -33.93410000     -75.31260000
H      -46.01820000     -32.64210000     -74.91310000
C      -42.88780000     -35.88480000     -73.81590000
H      -42.42180000     -35.50420000     -74.70610000
H      -42.90590000     -37.00420000     -73.87040000
C      -47.66970000     -35.92760000     -72.02820000
H      -48.49600000     -35.80240000     -72.76630000
H      -47.43020000     -36.93470000     -71.84070000
S      -41.98250000     -35.41510000     -72.17690000
S      -48.02530000     -35.13500000     -70.41600000
C      -42.45770000     -33.69270000     -72.01550000
H      -41.48110000     -33.14670000     -71.71240000
H      -42.64340000     -33.38250000     -72.95970000
C      -46.35870000     -35.32940000     -69.56730000
H      -45.65160000     -35.42590000     -70.47210000
H      -46.25100000     -36.30150000     -69.10860000
C      -45.89390000     -34.21370000     -68.67520000
H      -46.31530000     -34.28090000     -67.61910000
H      -44.82040000     -34.34840000     -68.57370000
C      -43.59200000     -33.50660000     -70.96140000
H      -43.26390000     -34.00420000     -70.08940000
H      -44.51130000     -34.10640000     -71.34510000
C      -44.10400000     -32.13390000     -70.70700000
C      -43.60820000     -31.03000000     -71.38110000
C      -45.32100000     -31.92110000     -70.00710000
H      -42.69600000     -30.89190000     -71.81540000
C      -45.78320000     -30.61240000     -70.13460000
C      -46.15520000     -32.77650000     -69.16720000
C      -47.18030000     -31.99890000     -68.66720000
S      -44.70040000     -29.63330000     -71.12840000
S      -47.23670000     -30.35780000     -69.15280000
H      -47.99930000     -32.51710000     -68.14070000
