40
Properties=species:S:1:pos:R:3 #=T CELL(abcABC):=T 1.889726e+02=T 90.00000=T Traj:=T positionsangstrom=T Step:=T 0=T Bead:=T pbc="F F F"
C      -43.61000000     -37.16020000     -70.85970000
C      -44.57320000     -36.59230000     -70.01240000
C      -45.87460000     -36.36470000     -70.51870000
C      -46.13000000     -36.63200000     -71.82490000
C      -45.17870000     -37.18510000     -72.71200000
C      -43.90230000     -37.40580000     -72.23220000
H      -42.59560000     -37.32100000     -70.39830000
H      -46.66960000     -35.95980000     -69.92860000
H      -45.51050000     -37.56370000     -73.70160000
H      -43.11110000     -37.90170000     -72.68570000
C      -47.49050000     -36.16290000     -72.33740000
H      -47.92300000     -35.48160000     -71.67530000
H      -48.15510000     -36.96650000     -72.35260000
C      -44.29790000     -36.43810000     -68.57290000
H      -45.17340000     -36.49050000     -67.82960000
H      -43.64340000     -37.33020000     -68.34530000
S      -47.49590000     -35.44110000     -74.03270000
S      -43.03260000     -35.00730000     -68.31890000
C      -47.37280000     -33.61190000     -73.79710000
H      -47.37030000     -33.26740000     -74.84920000
H      -48.23840000     -33.15350000     -73.29250000
C      -43.96220000     -33.32940000     -68.62840000
H      -43.18340000     -32.57410000     -68.36880000
H      -44.76310000     -33.36570000     -67.83620000
C      -44.46910000     -33.14910000     -69.97180000
H      -43.66430000     -33.50780000     -70.63980000
H      -45.38640000     -33.68280000     -70.07350000
C      -46.16380000     -33.13340000     -72.93370000
H      -45.23670000     -33.37570000     -73.41280000
H      -46.31970000     -33.76990000     -72.04260000
C      -46.07830000     -31.66900000     -72.58580000
C      -46.65730000     -30.68210000     -73.38630000
C      -45.43930000     -31.11380000     -71.42260000
H      -47.22900000     -30.81360000     -74.26590000
C      -45.41210000     -29.69590000     -71.48110000
C      -44.62140000     -31.66860000     -70.33300000
C      -44.00030000     -30.59810000     -69.62280000
S      -46.31750000     -28.99200000     -72.77170000
S      -44.43030000     -28.99500000     -70.22150000
H      -43.35780000     -30.63050000     -68.71950000
