40
Properties=species:S:1:pos:R:3 #=T CELL(abcABC):=T 1.889726e+02=T 90.00000=T Traj:=T positionsangstrom=T Step:=T 0=T Bead:=T pbc="F F F"
C      -43.24850000     -32.14600000     -71.66040000
C      -43.95170000     -31.10610000     -70.99230000
C      -45.16880000     -30.72600000     -71.63180000
C      -45.54960000     -31.25760000     -72.86470000
C      -44.79750000     -32.26690000     -73.44810000
C      -43.69930000     -32.79610000     -72.80250000
H      -42.21460000     -32.39010000     -71.27070000
H      -45.79790000     -29.90030000     -71.22360000
H      -45.32190000     -32.69410000     -74.34410000
H      -43.17790000     -33.64120000     -73.11740000
C      -46.84410000     -30.75330000     -73.52060000
H      -46.59480000     -30.29600000     -74.43500000
H      -47.30090000     -29.95590000     -72.85310000
C      -43.57770000     -30.57980000     -69.63870000
H      -42.94110000     -29.69340000     -69.59520000
H      -44.47200000     -30.27450000     -69.02540000
S      -48.02650000     -32.11830000     -73.82090000
S      -42.73800000     -31.85850000     -68.60580000
C      -48.75250000     -32.48070000     -72.22120000
H      -49.17570000     -31.58720000     -71.74010000
H      -49.64200000     -33.15500000     -72.41300000
C      -44.14080000     -32.73620000     -67.88760000
H      -44.60560000     -32.19560000     -67.06050000
H      -43.65330000     -33.57620000     -67.38820000
C      -45.34460000     -33.22610000     -68.78890000
H      -46.15080000     -33.55920000     -68.19770000
H      -45.81340000     -32.40500000     -69.37610000
C      -47.79650000     -33.17340000     -71.16310000
H      -48.42320000     -33.39970000     -70.29700000
H      -47.12310000     -32.37270000     -70.80460000
C      -46.95540000     -34.40920000     -71.54760000
C      -47.28070000     -35.23490000     -72.62000000
C      -45.73740000     -34.88890000     -70.79620000
H      -48.06420000     -34.92010000     -73.24500000
C      -45.15320000     -35.94520000     -71.50470000
C      -45.00840000     -34.44320000     -69.63080000
C      -43.89030000     -35.26410000     -69.38370000
S      -46.04870000     -36.46880000     -72.86700000
S      -43.65050000     -36.48510000     -70.64180000
H      -43.08910000     -35.16840000     -68.70220000
