40
Properties=species:S:1:pos:R:3 #=T CELL(abcABC):=T 1.889726e+02=T 90.00000=T Traj:=T positionsangstrom=T Step:=T 0=T Bead:=T pbc="F F F"
C      -43.09920000     -32.38920000     -72.07780000
C      -43.78930000     -31.19490000     -71.66890000
C      -44.98480000     -30.81480000     -72.28180000
C      -45.49260000     -31.54060000     -73.39600000
C      -44.73790000     -32.66910000     -73.85210000
C      -43.56840000     -33.10570000     -73.21700000
H      -41.99100000     -32.69190000     -71.76640000
H      -45.54530000     -29.96110000     -72.07330000
H      -45.13960000     -33.20660000     -74.64300000
H      -42.92840000     -33.93030000     -73.61370000
C      -46.85570000     -31.09850000     -73.96890000
H      -46.63300000     -30.63070000     -74.96270000
H      -47.25410000     -30.37760000     -73.31870000
C      -43.22520000     -30.47200000     -70.47280000
H      -42.26350000     -30.01850000     -70.71590000
H      -43.81680000     -29.70660000     -70.07730000
S      -48.16060000     -32.42230000     -74.11900000
S      -42.76210000     -31.65070000     -69.07190000
C      -48.70290000     -32.87770000     -72.42520000
H      -49.47070000     -32.12040000     -72.07880000
H      -49.22840000     -33.77290000     -72.51990000
C      -44.27950000     -31.94720000     -68.03070000
H      -44.52830000     -31.02460000     -67.48160000
H      -43.98110000     -32.56220000     -67.19520000
C      -45.40530000     -32.59670000     -68.88440000
H      -46.32230000     -32.68500000     -68.27620000
H      -45.66520000     -31.92230000     -69.73280000
C      -47.61210000     -33.00810000     -71.40700000
H      -48.00550000     -32.95620000     -70.37630000
H      -47.02800000     -32.13720000     -71.54130000
C      -46.83450000     -34.33530000     -71.41510000
C      -47.08300000     -35.45230000     -72.21820000
C      -45.79270000     -34.69510000     -70.45960000
H      -47.68410000     -35.37800000     -73.09890000
C      -45.22300000     -35.94970000     -70.68980000
C      -45.10260000     -33.98230000     -69.40580000
C      -44.09360000     -34.72460000     -68.86830000
S      -46.01210000     -36.79160000     -72.06500000
S      -43.98870000     -36.33180000     -69.49350000
H      -43.53540000     -34.56520000     -67.93740000
