40
Properties=species:S:1:pos:R:3 #=T CELL(abcABC):=T 1.889726e+02=T 90.00000=T Traj:=T positionsangstrom=T Step:=T 0=T Bead:=T pbc="F F F"
C      -47.81650000     -34.27390000     -74.06270000
C      -46.85640000     -34.31970000     -73.04580000
C      -46.17960000     -33.12690000     -72.77020000
C      -46.35670000     -31.93380000     -73.46730000
C      -47.20460000     -31.94480000     -74.57730000
C      -48.03640000     -33.06920000     -74.76840000
H      -48.48510000     -35.12480000     -74.34020000
H      -45.35370000     -33.15550000     -72.09370000
H      -47.37600000     -31.10710000     -75.25310000
H      -48.71260000     -33.06320000     -75.58750000
C      -45.63420000     -30.62330000     -73.04890000
H      -45.65910000     -29.86190000     -73.82930000
H      -44.67470000     -30.86380000     -72.66960000
C      -46.42740000     -35.55670000     -72.24850000
H      -46.62210000     -36.28910000     -73.03100000
H      -45.40610000     -35.44860000     -71.96550000
S      -46.58400000     -29.99530000     -71.57140000
S      -47.31100000     -36.09270000     -70.71470000
C      -45.42190000     -29.97710000     -70.11250000
H      -44.47630000     -29.47080000     -70.39570000
H      -45.97720000     -29.34970000     -69.35740000
C      -47.28700000     -34.66370000     -69.59130000
H      -48.31650000     -34.65050000     -69.14540000
H      -47.09690000     -33.73000000     -70.18230000
C      -46.11880000     -34.76060000     -68.52500000
H      -46.10800000     -33.88840000     -67.79030000
H      -46.09920000     -35.64550000     -67.87200000
C      -45.14480000     -31.32110000     -69.42580000
H      -46.04590000     -32.00440000     -69.49930000
H      -44.96490000     -31.29210000     -68.37130000
C      -44.00120000     -32.14840000     -70.02940000
C      -42.94280000     -31.62590000     -70.79280000
C      -44.01140000     -33.63220000     -69.88450000
H      -42.58260000     -30.65790000     -71.03240000
C      -42.96970000     -34.17330000     -70.62250000
C      -44.75140000     -34.73670000     -69.25310000
C      -44.19740000     -35.99820000     -69.53150000
S      -41.97640000     -32.95130000     -71.43080000
S      -42.76540000     -35.86790000     -70.64830000
H      -44.56490000     -36.90910000     -69.07900000
