40
Properties=species:S:1:pos:R:3 #=T CELL(abcABC):=T 1.889726e+02=T 90.00000=T Traj:=T positionsangstrom=T Step:=T 0=T Bead:=T pbc="F F F"
C      -47.92230000     -34.30600000     -73.88040000
C      -46.93740000     -34.40190000     -72.90670000
C      -46.17040000     -33.28910000     -72.63620000
C      -46.38300000     -32.05490000     -73.29520000
C      -47.32460000     -32.04580000     -74.31760000
C      -48.12660000     -33.16830000     -74.61270000
H      -48.53550000     -35.14140000     -74.09010000
H      -45.37800000     -33.39920000     -71.82890000
H      -47.38700000     -31.19010000     -74.91810000
H      -48.75130000     -33.11400000     -75.51150000
C      -45.61560000     -30.79630000     -72.94900000
H      -45.67640000     -30.05410000     -73.75650000
H      -44.54120000     -30.77220000     -72.73950000
C      -46.56710000     -35.74380000     -72.41160000
H      -46.83270000     -36.63790000     -73.03230000
H      -45.44160000     -35.68640000     -72.23970000
S      -46.58090000     -29.92590000     -71.60160000
S      -47.31230000     -36.18630000     -70.72320000
C      -45.39150000     -29.87710000     -70.13710000
H      -44.47070000     -29.32620000     -70.41570000
H      -45.98900000     -29.30140000     -69.45830000
C      -47.28440000     -34.66390000     -69.73500000
H      -48.24590000     -34.70700000     -69.13990000
H      -47.31410000     -33.84290000     -70.33990000
C      -46.08730000     -34.54720000     -68.73910000
H      -46.09710000     -33.54120000     -68.34090000
H      -46.23360000     -35.21520000     -67.89030000
C      -45.13340000     -31.31790000     -69.42840000
H      -46.04100000     -31.87600000     -69.44470000
H      -44.88240000     -31.05770000     -68.39640000
C      -44.11560000     -32.12170000     -70.16360000
C      -43.03360000     -31.58570000     -70.81470000
C      -44.04060000     -33.61610000     -70.04750000
H      -42.82580000     -30.58050000     -71.05270000
C      -42.86320000     -34.12480000     -70.67920000
C      -44.77320000     -34.75510000     -69.44070000
C      -44.04920000     -35.94830000     -69.67530000
S      -41.92900000     -32.78600000     -71.39600000
S      -42.62590000     -35.83290000     -70.58910000
H      -44.38860000     -36.97450000     -69.32120000
