40
Properties=species:S:1:pos:R:3 #=T CELL(abcABC):=T 1.889726e+02=T 90.00000=T Traj:=T positionsangstrom=T Step:=T 0=T Bead:=T pbc="F F F"
C      -43.10260000     -32.10100000     -71.64440000
C      -43.97070000     -31.35530000     -70.78480000
C      -45.19350000     -30.77340000     -71.22620000
C      -45.63460000     -31.05010000     -72.57410000
C      -44.79160000     -31.75200000     -73.45500000
C      -43.53240000     -32.20880000     -72.97520000
H      -42.22540000     -32.58110000     -71.27700000
H      -45.81280000     -30.19420000     -70.55260000
H      -45.09050000     -32.04920000     -74.46660000
H      -42.89870000     -32.49710000     -73.83540000
C      -47.12340000     -30.63740000     -73.08210000
H      -47.02610000     -29.84340000     -73.79420000
H      -47.68710000     -30.24360000     -72.24840000
C      -43.57130000     -30.97950000     -69.44750000
H      -42.52080000     -30.52630000     -69.55270000
H      -44.25540000     -30.27340000     -68.98890000
S      -48.00940000     -32.04330000     -73.96980000
S      -43.19750000     -32.36990000     -68.32750000
C      -48.86270000     -32.98910000     -72.66140000
H      -49.70260000     -32.45740000     -72.22140000
H      -49.32110000     -33.83380000     -73.17260000
C      -44.88570000     -32.86710000     -67.64410000
H      -45.24010000     -31.88430000     -67.30200000
H      -44.80650000     -33.48200000     -66.77410000
C      -45.82360000     -33.37990000     -68.75850000
H      -46.69210000     -33.80220000     -68.25340000
H      -46.20480000     -32.53370000     -69.18500000
C      -47.94010000     -33.54560000     -71.59610000
H      -48.69140000     -34.11200000     -71.03400000
H      -47.61000000     -32.65640000     -70.95360000
C      -46.67990000     -34.33340000     -71.94910000
C      -46.48790000     -34.94970000     -73.15760000
C      -45.72140000     -34.84810000     -70.94080000
H      -47.09770000     -34.89260000     -74.01720000
C      -44.94820000     -35.83750000     -71.46620000
C      -45.31350000     -34.44270000     -69.63490000
C      -44.20030000     -35.15140000     -69.23280000
S      -45.17770000     -36.20040000     -73.16460000
S      -43.65310000     -36.35410000     -70.39840000
H      -43.66490000     -34.90780000     -68.32730000
