40
Properties=species:S:1:pos:R:3 #=T CELL(abcABC):=T 1.889726e+02=T 90.00000=T Traj:=T positionsangstrom=T Step:=T 0=T Bead:=T pbc="F F F"
C      -47.47260000     -34.21180000     -74.18380000
C      -46.55040000     -34.24810000     -73.09580000
C      -46.01260000     -33.05500000     -72.68180000
C      -46.40510000     -31.83730000     -73.26000000
C      -47.28970000     -31.86090000     -74.31260000
C      -47.73170000     -33.08710000     -74.88250000
H      -47.90190000     -35.17020000     -74.38720000
H      -45.22700000     -33.02850000     -72.01320000
H      -47.53130000     -30.91470000     -74.74460000
H      -48.41520000     -33.11910000     -75.75420000
C      -45.82160000     -30.56790000     -72.70100000
H      -45.88930000     -29.78030000     -73.43620000
H      -44.73250000     -30.61230000     -72.51610000
C      -46.42690000     -35.64560000     -72.44490000
H      -46.58820000     -36.50970000     -73.05980000
H      -45.45740000     -35.71170000     -71.92180000
S      -46.64890000     -29.88040000     -71.18530000
S      -47.74650000     -35.69460000     -71.05660000
C      -45.39790000     -30.06090000     -69.84740000
H      -44.47840000     -29.48720000     -70.18660000
H      -45.84490000     -29.60090000     -68.90730000
C      -47.17900000     -34.28350000     -69.96110000
H      -48.03280000     -33.85150000     -69.47230000
H      -46.89730000     -33.43100000     -70.66990000
C      -46.21490000     -34.74570000     -68.88350000
H      -46.30670000     -34.09600000     -67.94750000
H      -46.53990000     -35.74730000     -68.49410000
C      -45.19420000     -31.53050000     -69.49670000
H      -46.11590000     -31.99880000     -69.59820000
H      -44.98050000     -31.61810000     -68.45100000
C      -44.01100000     -32.34190000     -70.13880000
C      -42.97500000     -31.86040000     -70.85130000
C      -43.99060000     -33.81820000     -70.02930000
H      -42.83150000     -30.76910000     -71.02040000
C      -42.84200000     -34.31700000     -70.61120000
C      -44.81370000     -34.86400000     -69.42610000
C      -44.24320000     -36.08150000     -69.73210000
S      -41.91660000     -33.14210000     -71.39330000
S      -42.62480000     -35.99210000     -70.42240000
H      -44.57360000     -37.02710000     -69.37420000
