40
Properties=species:S:1:pos:R:3 #=T CELL(abcABC):=T 1.889726e+02=T 90.00000=T Traj:=T positionsangstrom=T Step:=T 0=T Bead:=T pbc="F F F"
C      -48.80460000     -32.70950000     -73.13170000
C      -47.67150000     -31.82980000     -73.10840000
C      -47.32380000     -31.06720000     -72.02310000
C      -48.10020000     -31.13950000     -70.80920000
C      -49.23600000     -31.95860000     -70.85120000
C      -49.60620000     -32.73970000     -71.97080000
H      -48.96830000     -33.42990000     -73.93440000
H      -46.49330000     -30.35970000     -72.14300000
H      -49.83750000     -32.01180000     -69.95860000
H      -50.54590000     -33.27760000     -72.00240000
C      -47.89200000     -30.37700000     -69.53170000
H      -48.57550000     -30.71870000     -68.68260000
H      -47.85400000     -29.28340000     -69.79670000
C      -47.07810000     -31.69120000     -74.44980000
H      -47.48940000     -32.40230000     -75.15160000
H      -47.22380000     -30.70250000     -74.94540000
S      -46.14160000     -30.65530000     -68.82730000
S      -45.24890000     -31.80140000     -74.42220000
C      -45.90100000     -32.52740000     -68.81640000
H      -45.41550000     -32.72710000     -67.92690000
H      -46.78460000     -33.13110000     -68.80400000
C      -44.76530000     -33.40350000     -73.71730000
H      -44.65970000     -34.14310000     -74.51740000
H      -45.66260000     -33.59840000     -73.08980000
C      -43.43980000     -33.22510000     -72.89180000
H      -42.65140000     -32.72000000     -73.50270000
H      -43.61680000     -32.42400000     -72.21160000
C      -44.92720000     -32.83450000     -69.91260000
H      -44.17550000     -32.03060000     -69.87030000
H      -45.47360000     -32.62730000     -70.86360000
C      -44.16880000     -34.19070000     -69.75290000
C      -44.09950000     -34.96910000     -68.62990000
C      -43.43760000     -34.84840000     -70.87670000
H      -44.60220000     -34.58780000     -67.72370000
C      -42.99540000     -36.08520000     -70.51010000
C      -43.14040000     -34.52240000     -72.23900000
C      -42.59460000     -35.57740000     -72.90510000
S      -43.46010000     -36.54890000     -68.90100000
S      -42.24050000     -36.93420000     -71.83980000
H      -42.09850000     -35.57850000     -73.89030000
