40
Properties=species:S:1:pos:R:3 #=T CELL(abcABC):=T 1.889726e+02=T 90.00000=T Traj:=T positionsangstrom=T Step:=T 0=T Bead:=T pbc="F F F"
C      -47.82020000     -33.79960000     -74.40410000
C      -46.92130000     -34.00450000     -73.38900000
C      -46.27850000     -32.91650000     -72.92730000
C      -46.42950000     -31.65390000     -73.46940000
C      -47.28430000     -31.43160000     -74.50220000
C      -48.05670000     -32.51660000     -74.94200000
H      -48.40520000     -34.65860000     -74.77810000
H      -45.55660000     -32.99090000     -72.14110000
H      -47.50920000     -30.43570000     -74.91680000
H      -48.86580000     -32.24780000     -75.54850000
C      -45.80880000     -30.51840000     -72.69650000
H      -45.90210000     -29.59170000     -73.25180000
H      -44.74800000     -30.54220000     -72.41480000
C      -46.67010000     -35.40500000     -72.83480000
H      -47.09470000     -36.00950000     -73.58160000
H      -45.63100000     -35.67960000     -72.60610000
S      -46.69380000     -30.32650000     -71.07270000
S      -47.64090000     -35.77790000     -71.28370000
C      -45.34080000     -30.20600000     -69.90810000
H      -44.46840000     -29.82760000     -70.43540000
H      -45.69470000     -29.62830000     -69.03040000
C      -47.17580000     -34.45350000     -70.11160000
H      -48.09290000     -34.25100000     -69.55750000
H      -47.00570000     -33.46880000     -70.61490000
C      -46.16620000     -34.77990000     -69.02160000
H      -46.27020000     -33.98860000     -68.29660000
H      -46.46020000     -35.67250000     -68.51740000
C      -45.08690000     -31.60100000     -69.29230000
H      -45.95590000     -32.21410000     -69.36160000
H      -44.91430000     -31.47590000     -68.22720000
C      -43.90300000     -32.40810000     -69.83440000
C      -42.66080000     -31.88630000     -70.12280000
C      -43.88600000     -33.81220000     -69.82910000
H      -42.40150000     -30.86520000     -70.26300000
C      -42.73370000     -34.36470000     -70.37700000
C      -44.78280000     -34.86630000     -69.54030000
C      -44.39550000     -36.11920000     -69.99790000
S      -41.55280000     -33.20210000     -70.79340000
S      -42.68570000     -36.09050000     -70.61070000
H      -45.05960000     -36.99370000     -69.99400000
