40
Properties=species:S:1:pos:R:3 #=T CELL(abcABC):=T 1.889726e+02=T 90.00000=T Traj:=T positionsangstrom=T Step:=T 0=T Bead:=T pbc="F F F"
C      -47.77950000     -33.79390000     -74.43870000
C      -46.74340000     -34.13150000     -73.46420000
C      -46.02890000     -33.01610000     -73.04170000
C      -46.39530000     -31.71750000     -73.29810000
C      -47.43400000     -31.46810000     -74.24770000
C      -48.14460000     -32.51940000     -74.82550000
H      -48.31500000     -34.58610000     -74.91400000
H      -45.31220000     -33.11390000     -72.26320000
H      -47.71490000     -30.47880000     -74.47950000
H      -48.92000000     -32.31530000     -75.55400000
C      -45.68410000     -30.61470000     -72.58650000
H      -45.71790000     -29.69200000     -73.19850000
H      -44.66810000     -30.79730000     -72.19490000
C      -46.63060000     -35.52790000     -72.90370000
H      -47.06880000     -36.26670000     -73.68400000
H      -45.59350000     -35.76850000     -72.60730000
S      -46.65330000     -30.12450000     -71.02220000
S      -47.69910000     -35.77170000     -71.43170000
C      -45.35160000     -30.25130000     -69.71010000
H      -44.51260000     -29.79130000     -70.22790000
H      -45.63160000     -29.53700000     -68.94260000
C      -47.47970000     -34.34970000     -70.23940000
H      -48.43480000     -34.20780000     -69.69510000
H      -47.27760000     -33.49200000     -70.87860000
C      -46.27740000     -34.67890000     -69.22270000
H      -46.31360000     -33.84560000     -68.44360000
H      -46.55640000     -35.56920000     -68.58910000
C      -44.95230000     -31.56410000     -69.08560000
H      -45.81930000     -32.04750000     -68.65520000
H      -44.35840000     -31.29550000     -68.13110000
C      -43.90840000     -32.43730000     -69.80750000
C      -42.68750000     -31.95980000     -70.18410000
C      -43.85490000     -33.86100000     -69.98100000
H      -42.33580000     -30.98490000     -70.21930000
C      -42.70240000     -34.41580000     -70.50910000
C      -44.88740000     -34.86850000     -69.75480000
C      -44.34750000     -36.11530000     -70.04100000
S      -41.51390000     -33.16750000     -70.61100000
S      -42.76710000     -36.11990000     -70.67310000
H      -44.89600000     -37.01910000     -69.89870000
