40
Properties=species:S:1:pos:R:3 #=T CELL(abcABC):=T 1.889726e+02=T 90.00000=T Traj:=T positionsangstrom=T Step:=T 0=T Bead:=T pbc="F F F"
C      -47.70060000     -33.88150000     -74.42390000
C      -46.90000000     -34.05890000     -73.34880000
C      -46.23630000     -32.89530000     -72.89320000
C      -46.38990000     -31.63650000     -73.48830000
C      -47.27710000     -31.52350000     -74.57690000
C      -47.95990000     -32.62820000     -75.07020000
H      -48.30950000     -34.77800000     -74.70580000
H      -45.59780000     -33.01550000     -71.95610000
H      -47.44420000     -30.48310000     -75.00540000
H      -48.62180000     -32.48520000     -75.94880000
C      -45.82420000     -30.41520000     -72.80680000
H      -45.89230000     -29.51040000     -73.46850000
H      -44.76710000     -30.59840000     -72.58730000
C      -46.64770000     -35.34260000     -72.65990000
H      -46.65450000     -36.25540000     -73.26560000
H      -45.55420000     -35.40240000     -72.33500000
S      -46.55740000     -30.27070000     -71.12700000
S      -47.73540000     -35.76410000     -71.24810000
C      -45.34940000     -30.23440000     -69.75930000
H      -44.35120000     -29.87420000     -70.11970000
H      -45.69110000     -29.43250000     -69.10440000
C      -47.28770000     -34.47090000     -70.07220000
H      -48.23940000     -34.31190000     -69.54490000
H      -47.00220000     -33.55580000     -70.57370000
C      -46.22590000     -34.87120000     -69.02860000
H      -46.26880000     -34.10590000     -68.20560000
H      -46.49320000     -35.88850000     -68.61800000
C      -44.98600000     -31.61260000     -69.10670000
H      -45.91000000     -32.20050000     -68.86420000
H      -44.49890000     -31.38460000     -68.18630000
C      -44.02110000     -32.39990000     -70.00590000
C      -42.80840000     -31.86570000     -70.33820000
C      -43.94630000     -33.87150000     -69.91510000
H      -42.62620000     -30.79500000     -70.35160000
C      -42.68280000     -34.33310000     -70.39750000
C      -44.83970000     -34.97180000     -69.54520000
C      -44.23970000     -36.18980000     -69.79090000
S      -41.68490000     -33.06080000     -70.95840000
S      -42.66820000     -36.10730000     -70.44890000
H      -44.72950000     -37.16840000     -69.67610000
