40
Properties=species:S:1:pos:R:3 #=T CELL(abcABC):=T 1.889726e+02=T 90.00000=T Traj:=T positionsangstrom=T Step:=T 0=T Bead:=T pbc="F F F"
C      -48.96250000     -32.80600000     -73.14560000
C      -47.80700000     -32.01920000     -73.21750000
C      -47.38610000     -31.27560000     -72.06230000
C      -48.10090000     -31.32340000     -70.90560000
C      -49.16800000     -32.21630000     -70.76450000
C      -49.58840000     -32.94280000     -71.86660000
H      -49.45530000     -33.25950000     -74.01780000
H      -46.49240000     -30.61040000     -72.11660000
H      -49.69540000     -32.24310000     -69.82820000
H      -50.50600000     -33.52690000     -71.85390000
C      -47.78340000     -30.28180000     -69.77530000
H      -48.68230000     -30.08050000     -69.21490000
H      -47.53680000     -29.34170000     -70.21840000
C      -47.05660000     -31.85620000     -74.53610000
H      -47.42680000     -32.69460000     -75.15420000
H      -47.28810000     -30.87680000     -74.96210000
S      -46.27840000     -30.59800000     -68.75810000
S      -45.16670000     -31.71460000     -74.51290000
C      -45.82690000     -32.36650000     -68.85570000
H      -45.49270000     -32.60990000     -67.80330000
H      -46.79850000     -32.85850000     -69.14500000
C      -44.75900000     -33.34540000     -73.60920000
H      -44.71260000     -34.16140000     -74.30770000
H      -45.56370000     -33.64290000     -72.91020000
C      -43.39140000     -33.23330000     -72.97750000
H      -42.63160000     -33.17420000     -73.83180000
H      -43.31990000     -32.33130000     -72.35560000
C      -44.77130000     -32.65950000     -69.90850000
H      -43.94390000     -31.98070000     -69.87780000
H      -45.24510000     -32.62560000     -70.87950000
C      -44.24600000     -34.19940000     -69.82270000
C      -44.26290000     -34.88870000     -68.65970000
C      -43.52790000     -34.86100000     -70.88500000
H      -44.99400000     -34.65450000     -67.89010000
C      -43.11790000     -36.14140000     -70.50380000
C      -43.03430000     -34.46110000     -72.20000000
C      -42.27390000     -35.44900000     -72.74580000
S      -43.40800000     -36.42990000     -68.78510000
S      -42.29700000     -36.95040000     -71.78100000
H      -41.86610000     -35.41950000     -73.77910000
