40
Properties=species:S:1:pos:R:3 #=T CELL(abcABC):=T 1.889726e+02=T 90.00000=T Traj:=T positionsangstrom=T Step:=T 0=T Bead:=T pbc="F F F"
C      -48.23520000     -32.84760000     -71.77700000
C      -47.86310000     -31.65170000     -71.13800000
C      -47.25850000     -31.72290000     -69.86690000
C      -46.86150000     -32.99410000     -69.38800000
C      -47.09480000     -34.11850000     -70.15110000
C      -47.75680000     -34.09320000     -71.32190000
H      -48.87840000     -32.84660000     -72.66080000
H      -47.02450000     -30.86340000     -69.25410000
H      -46.58120000     -35.05250000     -69.86150000
H      -47.92560000     -35.02450000     -71.86780000
C      -46.29630000     -33.10880000     -67.97710000
H      -46.89990000     -33.79220000     -67.37060000
H      -46.30480000     -32.14180000     -67.50000000
C      -48.05920000     -30.33880000     -71.82000000
H      -49.01180000     -30.34540000     -72.30970000
H      -48.21360000     -29.44770000     -71.22750000
S      -44.58320000     -33.66400000     -67.89500000
S      -46.74890000     -29.89220000     -73.11880000
C      -43.51520000     -32.36790000     -68.66710000
H      -43.85470000     -31.39140000     -68.32620000
H      -42.47560000     -32.39670000     -68.32270000
C      -46.18520000     -31.49930000     -73.82410000
H      -45.72450000     -31.26560000     -74.83690000
H      -47.12800000     -32.05630000     -73.97730000
C      -45.15890000     -32.17090000     -72.96200000
H      -44.24250000     -31.58290000     -73.04600000
H      -45.44480000     -32.03970000     -71.95950000
C      -43.40530000     -32.42840000     -70.20980000
H      -42.57870000     -31.77490000     -70.48290000
H      -44.23200000     -31.86040000     -70.61730000
C      -43.34360000     -33.74820000     -70.92260000
C      -42.47020000     -34.68130000     -70.40700000
C      -43.96760000     -34.22490000     -72.07850000
H      -41.99320000     -34.59310000     -69.48000000
C      -43.79710000     -35.61280000     -72.28530000
C      -44.85640000     -33.60800000     -73.03330000
C      -45.33360000     -34.53670000     -73.93230000
S      -42.61190000     -36.26130000     -71.24320000
S      -44.78200000     -36.19380000     -73.71760000
H      -45.97110000     -34.31460000     -74.80990000
