40
Properties=species:S:1:pos:R:3 #=T CELL(abcABC):=T 1.889726e+02=T 90.00000=T Traj:=T positionsangstrom=T Step:=T 0=T Bead:=T pbc="F F F"
C      -43.99610000     -31.07790000     -71.40640000
C      -45.05830000     -30.92020000     -70.49540000
C      -46.35730000     -31.04290000     -70.94610000
C      -46.58610000     -31.24120000     -72.33390000
C      -45.57180000     -31.25810000     -73.27480000
C      -44.23240000     -31.26650000     -72.76310000
H      -42.98010000     -30.95030000     -71.12240000
H      -47.23320000     -31.13090000     -70.27230000
H      -45.74760000     -31.36610000     -74.33830000
H      -43.44500000     -31.32880000     -73.53250000
C      -48.03790000     -31.40880000     -72.94750000
H      -48.32490000     -30.57970000     -73.65900000
H      -48.85970000     -31.28800000     -72.22960000
C      -44.73710000     -30.56700000     -69.06900000
H      -44.13400000     -29.68130000     -68.81000000
H      -45.73450000     -30.42750000     -68.58470000
S      -48.20350000     -32.92850000     -73.93890000
S      -43.88610000     -32.00350000     -68.25980000
C      -48.49780000     -34.24320000     -72.63450000
H      -49.33530000     -34.03830000     -72.03460000
H      -48.70600000     -35.15520000     -73.23560000
C      -45.12970000     -33.16750000     -67.65020000
H      -45.79540000     -32.71130000     -66.94140000
H      -44.49240000     -33.79390000     -67.02880000
C      -45.84070000     -33.95220000     -68.75990000
H      -46.46200000     -34.70820000     -68.25540000
H      -46.48890000     -33.26500000     -69.31420000
C      -47.42920000     -34.26580000     -71.62700000
H      -47.73140000     -35.09000000     -70.92240000
H      -47.37350000     -33.34430000     -71.03700000
C      -46.03620000     -34.64150000     -72.15400000
C      -45.73730000     -35.11820000     -73.38290000
C      -45.01410000     -34.83510000     -71.15730000
H      -46.43740000     -35.14130000     -74.24700000
C      -43.87940000     -35.41540000     -71.77700000
C      -44.82290000     -34.52330000     -69.76910000
C      -43.62650000     -35.02010000     -69.31060000
S      -44.06430000     -35.77670000     -73.50370000
S      -42.64080000     -35.77930000     -70.51650000
H      -43.35820000     -34.94190000     -68.18140000
