40
Properties=species:S:1:pos:R:3 #=T CELL(abcABC):=T 1.889726e+02=T 90.00000=T Traj:=T positionsangstrom=T Step:=T 0=T Bead:=T pbc="F F F"
C      -44.10980000     -31.24140000     -70.94840000
C      -45.29200000     -31.01860000     -70.19430000
C      -46.54350000     -31.14170000     -70.88690000
C      -46.67500000     -31.47890000     -72.27650000
C      -45.45530000     -31.58780000     -72.94950000
C      -44.21550000     -31.47260000     -72.32540000
H      -43.15580000     -31.34130000     -70.53200000
H      -47.41500000     -31.00050000     -70.27480000
H      -45.57650000     -31.88690000     -74.02100000
H      -43.24390000     -31.48420000     -72.79150000
C      -47.99790000     -31.46950000     -72.94910000
H      -48.10190000     -30.75480000     -73.70530000
H      -48.81010000     -31.34130000     -72.22400000
C      -45.23810000     -30.79280000     -68.71720000
H      -44.88570000     -29.79000000     -68.49710000
H      -46.24930000     -30.67220000     -68.35240000
S      -48.25220000     -33.03580000     -73.91600000
S      -44.10450000     -32.01620000     -67.84880000
C      -48.57320000     -34.36190000     -72.64520000
H      -49.45420000     -34.01890000     -72.08990000
H      -48.79280000     -35.33640000     -73.18970000
C      -45.11840000     -33.53580000     -67.61970000
H      -45.91580000     -33.15060000     -67.00010000
H      -44.43540000     -34.14030000     -67.02860000
C      -45.65470000     -34.17460000     -68.93720000
H      -46.20200000     -35.05340000     -68.62060000
H      -46.39060000     -33.49480000     -69.35450000
C      -47.45750000     -34.53970000     -71.61560000
H      -47.83710000     -35.31680000     -71.01550000
H      -47.51230000     -33.71680000     -70.91410000
C      -46.09680000     -34.93830000     -72.14340000
C      -45.76340000     -35.26670000     -73.44200000
C      -44.90780000     -34.80160000     -71.33520000
H      -46.44310000     -35.10510000     -74.29760000
C      -43.72290000     -35.07500000     -72.03380000
C      -44.61640000     -34.50380000     -69.95500000
C      -43.24790000     -34.57950000     -69.66050000
S      -44.08050000     -35.41060000     -73.72750000
S      -42.30090000     -35.16700000     -71.07110000
H      -42.88650000     -34.63460000     -68.69450000
