40
Properties=species:S:1:pos:R:3 #=T CELL(abcABC):=T 1.889726e+02=T 90.00000=T Traj:=T positionsangstrom=T Step:=T 0=T Bead:=T pbc="F F F"
C      -44.26680000     -31.10960000     -70.85740000
C      -45.42680000     -31.24930000     -70.07110000
C      -46.66620000     -31.36530000     -70.76330000
C      -46.69160000     -31.44560000     -72.16810000
C      -45.58040000     -31.21000000     -72.90190000
C      -44.32110000     -31.09210000     -72.21780000
H      -43.29890000     -31.00260000     -70.31370000
H      -47.64470000     -31.53840000     -70.23230000
H      -45.63030000     -31.30710000     -73.96860000
H      -43.41580000     -31.07420000     -72.85360000
C      -48.05900000     -31.56830000     -72.85430000
H      -48.34590000     -30.71920000     -73.52280000
H      -48.80350000     -31.73590000     -72.16940000
C      -45.33870000     -31.05620000     -68.56850000
H      -45.01950000     -30.01340000     -68.34730000
H      -46.34010000     -31.14630000     -68.17700000
S      -48.14750000     -33.11890000     -73.95330000
S      -44.09520000     -32.18610000     -67.74270000
C      -48.50970000     -34.41530000     -72.72200000
H      -49.50660000     -34.16990000     -72.35630000
H      -48.54370000     -35.38220000     -73.18120000
C      -45.00740000     -33.82660000     -67.60100000
H      -45.81490000     -33.58050000     -66.91440000
H      -44.31080000     -34.48040000     -67.06510000
C      -45.57490000     -34.26860000     -68.93580000
H      -46.10430000     -35.21730000     -68.73690000
H      -46.35320000     -33.55080000     -69.25790000
C      -47.40440000     -34.52580000     -71.59230000
H      -47.77530000     -35.23240000     -70.81530000
H      -47.21670000     -33.58380000     -71.16480000
C      -46.04190000     -34.94450000     -72.12740000
C      -45.86560000     -35.27670000     -73.46340000
C      -44.85840000     -34.89560000     -71.35690000
H      -46.69860000     -35.69840000     -74.02430000
C      -43.76440000     -35.10800000     -72.12540000
C      -44.53770000     -34.39780000     -70.01820000
C      -43.15530000     -34.38080000     -69.79690000
S      -44.12120000     -35.45180000     -73.74560000
S      -42.22640000     -34.78000000     -71.32420000
H      -42.60830000     -33.89600000     -68.94600000
