40
Properties=species:S:1:pos:R:3 #=T CELL(abcABC):=T 1.889726e+02=T 90.00000=T Traj:=T positionsangstrom=T Step:=T 0=T Bead:=T pbc="F F F"
C      -43.81600000     -30.99390000     -71.40820000
C      -44.92640000     -30.82830000     -70.56370000
C      -46.20570000     -30.86050000     -71.08660000
C      -46.36080000     -31.10040000     -72.50180000
C      -45.20690000     -31.31340000     -73.29020000
C      -43.92210000     -31.25830000     -72.73680000
H      -42.85930000     -30.86560000     -70.99540000
H      -47.02840000     -30.86350000     -70.38200000
H      -45.38500000     -31.66480000     -74.33600000
H      -43.03220000     -31.28160000     -73.36050000
C      -47.76360000     -31.18090000     -73.01630000
H      -47.95790000     -30.33480000     -73.66960000
H      -48.45740000     -31.25810000     -72.12460000
C      -44.65630000     -30.51150000     -69.04370000
H      -43.90550000     -29.69050000     -69.06700000
H      -45.57620000     -30.16000000     -68.53920000
S      -48.06850000     -32.73950000     -74.00010000
S      -43.83380000     -31.85340000     -68.10110000
C      -48.60460000     -33.92890000     -72.77370000
H      -49.48800000     -33.44460000     -72.35450000
H      -48.93770000     -34.77130000     -73.34560000
C      -45.10700000     -33.19740000     -67.74730000
H      -45.86190000     -32.71600000     -67.08440000
H      -44.53360000     -33.85650000     -67.11150000
C      -45.76340000     -33.85450000     -68.85570000
H      -46.53740000     -34.50360000     -68.40540000
H      -46.29220000     -33.09070000     -69.40580000
C      -47.61690000     -34.20360000     -71.66420000
H      -48.02290000     -34.88870000     -70.93600000
H      -47.43320000     -33.28670000     -71.08800000
C      -46.18450000     -34.72610000     -72.04290000
C      -45.93490000     -35.26890000     -73.25310000
C      -45.14130000     -34.96030000     -71.10730000
H      -46.55150000     -35.11740000     -74.09980000
C      -44.12810000     -35.70260000     -71.67000000
C      -44.88850000     -34.65790000     -69.73550000
C      -43.66890000     -35.13760000     -69.29920000
S      -44.35860000     -36.07680000     -73.37190000
S      -42.84300000     -35.99620000     -70.59050000
H      -43.22550000     -34.82740000     -68.36120000
