40
Properties=species:S:1:pos:R:3 #=T CELL(abcABC):=T 1.889726e+02=T 90.00000=T Traj:=T positionsangstrom=T Step:=T 0=T Bead:=T pbc="F F F"
C      -44.48860000     -30.97890000     -70.60720000
C      -45.55130000     -31.21710000     -69.75400000
C      -46.86990000     -31.39050000     -70.31740000
C      -47.02200000     -31.54850000     -71.67460000
C      -45.87650000     -31.40540000     -72.48350000
C      -44.61410000     -31.05390000     -71.97290000
H      -43.48190000     -30.83830000     -70.20130000
H      -47.79730000     -31.48130000     -69.69270000
H      -45.92690000     -31.54370000     -73.59700000
H      -43.81130000     -30.77200000     -72.57140000
C      -48.32130000     -31.84380000     -72.34100000
H      -48.82470000     -30.83890000     -72.60050000
H      -48.99060000     -32.28580000     -71.60670000
C      -45.47740000     -31.04730000     -68.27420000
H      -44.89000000     -30.13810000     -68.01910000
H      -46.50520000     -31.09010000     -67.78830000
S      -48.16850000     -32.96640000     -73.76280000
S      -44.38950000     -32.29880000     -67.35780000
C      -48.30940000     -34.62390000     -72.94460000
H      -49.36480000     -34.61500000     -72.47220000
H      -48.30180000     -35.28310000     -73.83790000
C      -44.96160000     -34.01130000     -67.83710000
H      -45.81250000     -34.29130000     -67.20300000
H      -44.09180000     -34.59220000     -67.62510000
C      -45.42130000     -34.19240000     -69.30000000
H      -45.97090000     -35.19000000     -69.39740000
H      -46.14560000     -33.48960000     -69.65230000
C      -47.28060000     -34.87030000     -71.85050000
H      -47.59250000     -35.78450000     -71.19400000
H      -47.43650000     -34.11370000     -71.14410000
C      -45.88980000     -34.94290000     -72.43640000
C      -45.64800000     -35.40860000     -73.70700000
C      -44.67130000     -34.69600000     -71.71030000
H      -46.32140000     -35.77110000     -74.52000000
C      -43.52490000     -34.71650000     -72.50920000
C      -44.31650000     -34.28180000     -70.36080000
C      -42.94980000     -34.24590000     -70.09510000
S      -43.94370000     -35.37730000     -74.07550000
S      -42.03630000     -34.68080000     -71.54560000
H      -42.35000000     -33.96700000     -69.27630000
