40
Properties=species:S:1:pos:R:3 #=T CELL(abcABC):=T 1.889726e+02=T 90.00000=T Traj:=T positionsangstrom=T Step:=T 0=T Bead:=T pbc="F F F"
C      -45.07980000     -33.61600000     -75.75730000
C      -45.29670000     -32.51360000     -74.93320000
C      -46.53650000     -32.43210000     -74.18090000
C      -47.49380000     -33.43470000     -74.32770000
C      -47.35780000     -34.42900000     -75.30660000
C      -46.10750000     -34.55660000     -75.98020000
H      -44.12810000     -33.75570000     -76.17350000
H      -46.64290000     -31.61770000     -73.45550000
H      -48.20800000     -35.08530000     -75.41940000
H      -45.93300000     -35.42960000     -76.61770000
C      -48.67440000     -33.60910000     -73.37280000
H      -48.58860000     -34.49090000     -72.72150000
H      -49.61420000     -33.73770000     -73.89120000
C      -44.14660000     -31.75630000     -74.38760000
H      -43.56540000     -31.17570000     -75.27000000
H      -44.31130000     -31.09730000     -73.54910000
S      -48.84170000     -32.34360000     -72.04740000
S      -42.72430000     -32.79630000     -73.87600000
C      -48.09110000     -33.02730000     -70.57390000
H      -48.64690000     -32.61010000     -69.67380000
H      -48.15730000     -34.14780000     -70.48450000
C      -43.26520000     -33.67540000     -72.29520000
H      -42.56550000     -34.48320000     -72.12950000
H      -44.21760000     -34.20590000     -72.57670000
C      -43.21650000     -32.67080000     -71.15110000
H      -42.36740000     -32.07460000     -71.24010000
H      -44.06510000     -32.02050000     -71.24450000
C      -46.60500000     -32.76210000     -70.36140000
H      -46.37530000     -31.73730000     -70.55930000
H      -45.92780000     -33.25340000     -71.16140000
C      -45.94990000     -33.27960000     -69.07080000
C      -46.66420000     -33.70840000     -67.95300000
C      -44.55060000     -33.52270000     -68.94860000
H      -47.74120000     -33.56240000     -67.83060000
C      -44.22940000     -34.00670000     -67.65280000
C      -43.33480000     -33.35400000     -69.75290000
C      -42.27970000     -33.88520000     -69.13890000
S      -45.62410000     -34.19760000     -66.68180000
S      -42.56890000     -34.50710000     -67.55160000
H      -41.30300000     -33.78490000     -69.52060000
