40
Properties=species:S:1:pos:R:3 #=T CELL(abcABC):=T 1.889726e+02=T 90.00000=T Traj:=T positionsangstrom=T Step:=T 0=T Bead:=T pbc="F F F"
C      -45.09360000     -33.63200000     -75.81500000
C      -45.22770000     -32.78360000     -74.73810000
C      -46.36840000     -32.76880000     -73.87820000
C      -47.42200000     -33.69190000     -74.12130000
C      -47.28570000     -34.60820000     -75.20920000
C      -46.14020000     -34.57720000     -76.06580000
H      -44.23260000     -33.60000000     -76.34160000
H      -46.41650000     -32.14300000     -73.01050000
H      -48.11810000     -35.27040000     -75.39820000
H      -46.04420000     -35.25730000     -76.86670000
C      -48.71110000     -33.66440000     -73.30620000
H      -48.85760000     -34.68410000     -72.95600000
H      -49.45970000     -33.49280000     -74.07420000
C      -43.98940000     -31.83090000     -74.52820000
H      -43.80630000     -31.34460000     -75.43690000
H      -44.21970000     -31.05740000     -73.85630000
S      -48.93440000     -32.25010000     -72.10430000
S      -42.47480000     -32.75150000     -73.87830000
C      -48.13940000     -32.80860000     -70.44460000
H      -48.55840000     -32.16650000     -69.76830000
H      -48.65540000     -33.76400000     -70.21650000
C      -43.28400000     -33.55520000     -72.40580000
H      -42.59720000     -34.36940000     -71.94220000
H      -44.25310000     -33.99450000     -72.66000000
C      -43.37680000     -32.62060000     -71.20120000
H      -42.42640000     -32.01470000     -71.28070000
H      -44.26390000     -31.92530000     -71.15870000
C      -46.67140000     -32.75350000     -70.39680000
H      -46.35180000     -31.73200000     -70.60610000
H      -46.33220000     -33.33560000     -71.26220000
C      -46.01080000     -33.22880000     -69.10760000
C      -46.72890000     -33.51710000     -67.95850000
C      -44.62650000     -33.56850000     -69.01510000
H      -47.78320000     -33.30460000     -67.86850000
C      -44.29960000     -34.12520000     -67.76630000
C      -43.37310000     -33.37160000     -69.81660000
C      -42.26730000     -33.81290000     -69.13730000
S      -45.65600000     -34.20940000     -66.72300000
S      -42.60090000     -34.41300000     -67.51610000
H      -41.30710000     -33.72860000     -69.52840000
