40
Properties=species:S:1:pos:R:3 #=T CELL(abcABC):=T 1.889726e+02=T 90.00000=T Traj:=T positionsangstrom=T Step:=T 0=T Bead:=T pbc="F F F"
C      -44.87260000     -31.32460000     -70.34240000
C      -45.90170000     -31.58890000     -69.43720000
C      -47.12790000     -31.97930000     -70.02170000
C      -47.32600000     -31.90740000     -71.41110000
C      -46.28570000     -31.41240000     -72.20960000
C      -45.06020000     -31.15000000     -71.72380000
H      -43.90460000     -31.30980000     -69.90360000
H      -48.03990000     -32.30670000     -69.41150000
H      -46.53950000     -31.20710000     -73.26430000
H      -44.32690000     -30.62910000     -72.33780000
C      -48.73830000     -32.25450000     -71.93360000
H      -49.26020000     -31.37300000     -72.27250000
H      -49.21590000     -32.74350000     -71.07500000
C      -45.63250000     -31.69700000     -67.97810000
H      -45.49290000     -30.74280000     -67.44140000
H      -46.51300000     -32.18510000     -67.53860000
S      -48.72400000     -33.41520000     -73.49650000
S      -44.08290000     -32.66330000     -67.64910000
C      -48.19950000     -35.11300000     -72.86560000
H      -49.18270000     -35.40520000     -72.28770000
H      -48.12710000     -35.86870000     -73.63840000
C      -44.53740000     -34.51190000     -67.95410000
H      -45.41260000     -34.73450000     -67.37670000
H      -43.57990000     -34.94100000     -67.64680000
C      -45.08490000     -34.81370000     -69.37380000
H      -45.62540000     -35.81560000     -69.45050000
H      -45.96090000     -34.15040000     -69.42360000
C      -46.93900000     -35.07400000     -71.97030000
H      -46.78770000     -36.05820000     -71.46850000
H      -47.14870000     -34.42630000     -71.15720000
C      -45.62930000     -34.57590000     -72.64770000
C      -45.48020000     -34.18630000     -73.96050000
C      -44.40160000     -34.47950000     -71.88650000
H      -46.27120000     -34.11010000     -74.65140000
C      -43.32860000     -34.09320000     -72.68430000
C      -44.09060000     -34.63030000     -70.46260000
C      -42.74980000     -34.42390000     -70.21150000
S      -43.81420000     -33.72450000     -74.32840000
S      -41.84370000     -34.28910000     -71.76770000
H      -42.27440000     -34.58640000     -69.27480000
