40
Properties=species:S:1:pos:R:3 #=T CELL(abcABC):=T 1.889726e+02=T 90.00000=T Traj:=T positionsangstrom=T Step:=T 0=T Bead:=T pbc="F F F"
C      -44.90330000     -31.01490000     -70.68020000
C      -45.72140000     -31.71010000     -69.72530000
C      -46.95580000     -32.09670000     -70.27160000
C      -47.39870000     -31.89440000     -71.55230000
C      -46.54880000     -31.29340000     -72.44090000
C      -45.28020000     -30.85420000     -72.02280000
H      -44.00750000     -30.48310000     -70.37380000
H      -47.59040000     -32.53090000     -69.52620000
H      -46.87680000     -31.18780000     -73.46020000
H      -44.60160000     -30.51240000     -72.77380000
C      -48.75980000     -32.37190000     -72.01110000
H      -49.47940000     -31.49980000     -72.32280000
H      -49.22790000     -32.86310000     -71.23880000
C      -45.50390000     -31.73490000     -68.24740000
H      -45.34600000     -30.71570000     -67.96360000
H      -46.36130000     -32.08360000     -67.71350000
S      -48.73450000     -33.31670000     -73.51190000
S      -44.02460000     -32.80260000     -67.55290000
C      -48.14280000     -35.09850000     -72.85380000
H      -49.09280000     -35.42900000     -72.33940000
H      -47.84660000     -35.66610000     -73.71070000
C      -44.61400000     -34.63440000     -67.84130000
H      -45.48440000     -34.87980000     -67.16040000
H      -43.81450000     -35.25850000     -67.41130000
C      -44.97860000     -35.12140000     -69.22620000
H      -45.08340000     -36.23270000     -69.16720000
H      -45.87860000     -34.72700000     -69.48070000
C      -46.99080000     -35.12710000     -71.86930000
H      -46.74300000     -36.20780000     -71.86370000
H      -47.23640000     -34.74120000     -70.86740000
C      -45.70820000     -34.47850000     -72.46540000
C      -45.50220000     -34.03720000     -73.72570000
C      -44.43960000     -34.50590000     -71.70780000
H      -46.24530000     -34.20990000     -74.51350000
C      -43.41440000     -34.01830000     -72.45320000
C      -44.01470000     -34.81140000     -70.37080000
C      -42.64670000     -34.65930000     -70.25940000
S      -43.82560000     -33.69670000     -74.17120000
S      -41.85030000     -34.14440000     -71.71050000
H      -42.04910000     -34.61650000     -69.37550000
