40
Properties=species:S:1:pos:R:3 #=T CELL(abcABC):=T 1.889726e+02=T 90.00000=T Traj:=T positionsangstrom=T Step:=T 0=T Bead:=T pbc="F F F"
C      -44.91820000     -31.18670000     -70.29010000
C      -45.97410000     -31.86550000     -69.52640000
C      -47.25450000     -32.04230000     -70.06320000
C      -47.46450000     -31.83850000     -71.44540000
C      -46.48770000     -31.14900000     -72.17940000
C      -45.20260000     -30.96250000     -71.64100000
H      -43.94880000     -31.07600000     -69.85190000
H      -48.06640000     -32.46600000     -69.39870000
H      -46.69300000     -30.87000000     -73.12540000
H      -44.44240000     -30.42240000     -72.17940000
C      -48.81810000     -32.06610000     -72.04590000
H      -49.35730000     -31.16680000     -72.44580000
H      -49.56010000     -32.52300000     -71.46770000
C      -45.77620000     -32.08800000     -68.02820000
H      -45.87380000     -31.08120000     -67.42210000
H      -46.60900000     -32.79070000     -67.76830000
S      -48.43990000     -33.19660000     -73.53000000
S      -44.17230000     -32.87040000     -67.37110000
C      -48.21980000     -34.88270000     -72.82670000
H      -49.07980000     -35.17080000     -72.31020000
H      -48.11360000     -35.42560000     -73.66420000
C      -44.34540000     -34.59050000     -67.94600000
H      -44.89130000     -35.17040000     -67.16160000
H      -43.35260000     -35.00440000     -67.80780000
C      -44.86740000     -34.83410000     -69.35830000
H      -44.97510000     -35.93100000     -69.42070000
H      -45.78600000     -34.42280000     -69.35120000
C      -47.00220000     -35.02590000     -71.91940000
H      -47.09070000     -36.03550000     -71.46130000
H      -47.10640000     -34.26720000     -71.17900000
C      -45.62050000     -34.81110000     -72.53620000
C      -45.44690000     -34.82570000     -73.93410000
C      -44.45030000     -34.35480000     -71.88750000
H      -46.09840000     -35.37060000     -74.63730000
C      -43.37750000     -34.05440000     -72.74100000
C      -44.01990000     -34.35920000     -70.48560000
C      -42.74580000     -33.89920000     -70.33610000
S      -43.74860000     -34.55790000     -74.40250000
S      -41.89530000     -33.59950000     -71.87790000
H      -42.03670000     -33.71400000     -69.49870000
