40
Properties=species:S:1:pos:R:3 #=T CELL(abcABC):=T 1.889726e+02=T 90.00000=T Traj:=T positionsangstrom=T Step:=T 0=T Bead:=T pbc="F F F"
C      -44.83300000     -31.05100000     -70.78960000
C      -45.68710000     -31.67270000     -69.86230000
C      -46.92200000     -32.07030000     -70.35150000
C      -47.38070000     -31.82750000     -71.61570000
C      -46.60080000     -31.06600000     -72.46290000
C      -45.29010000     -30.68630000     -72.09750000
H      -43.80630000     -30.85040000     -70.50660000
H      -47.50700000     -32.66440000     -69.72880000
H      -46.97100000     -30.76630000     -73.38880000
H      -44.54930000     -30.24720000     -72.72790000
C      -48.79610000     -32.30510000     -72.04780000
H      -49.49720000     -31.51120000     -72.21040000
H      -49.25130000     -32.88620000     -71.15360000
C      -45.27950000     -31.80580000     -68.41050000
H      -44.91060000     -30.74280000     -68.12780000
H      -46.14960000     -31.98750000     -67.67820000
S      -48.76730000     -33.43660000     -73.52530000
S      -43.97560000     -32.96090000     -67.93780000
C      -48.17710000     -35.05330000     -72.91870000
H      -48.88830000     -35.74430000     -72.56650000
H      -47.79440000     -35.61620000     -73.78180000
C      -44.68820000     -34.63110000     -67.83600000
H      -45.49450000     -34.57470000     -67.08620000
H      -43.90800000     -35.27990000     -67.39170000
C      -44.94620000     -35.30300000     -69.18450000
H      -44.86210000     -36.38790000     -69.04370000
H      -46.00010000     -35.07300000     -69.56660000
C      -47.10810000     -35.02030000     -71.83770000
H      -47.06710000     -36.06080000     -71.49750000
H      -47.46170000     -34.50480000     -70.90920000
C      -45.73240000     -34.63070000     -72.38720000
C      -45.46900000     -34.21950000     -73.67830000
C      -44.45200000     -34.53650000     -71.62190000
H      -46.30080000     -34.04800000     -74.46370000
C      -43.33940000     -34.14210000     -72.37510000
C      -44.04710000     -34.84860000     -70.27460000
C      -42.70660000     -34.57930000     -70.06050000
S      -43.85820000     -33.57270000     -73.93950000
S      -41.87290000     -34.00340000     -71.51980000
H      -42.12410000     -34.63860000     -69.16070000
