40
Properties=species:S:1:pos:R:3 #=T CELL(abcABC):=T 1.889726e+02=T 90.00000=T Traj:=T positionsangstrom=T Step:=T 0=T Bead:=T pbc="F F F"
C      -48.35990000     -33.95480000     -72.77300000
C      -47.86920000     -32.70040000     -73.16280000
C      -47.79550000     -31.68890000     -72.19020000
C      -48.11580000     -31.89280000     -70.84940000
C      -48.51470000     -33.18170000     -70.46450000
C      -48.60420000     -34.20000000     -71.40800000
H      -48.57700000     -34.68060000     -73.52490000
H      -47.43170000     -30.73650000     -72.51830000
H      -48.60550000     -33.33940000     -69.37410000
H      -48.91720000     -35.17140000     -71.14160000
C      -48.13100000     -30.77190000     -69.81490000
H      -48.34190000     -31.20340000     -68.84050000
H      -48.72190000     -29.91730000     -70.12120000
C      -47.32220000     -32.40290000     -74.58150000
H      -47.44730000     -33.34680000     -75.09800000
H      -47.90790000     -31.57690000     -75.10430000
S      -46.41470000     -30.00470000     -69.47840000
S      -45.51540000     -32.02880000     -74.65120000
C      -45.51850000     -31.51610000     -69.12000000
H      -44.51450000     -31.31870000     -68.61270000
H      -46.19340000     -32.20290000     -68.50000000
C      -44.88480000     -33.56220000     -73.83700000
H      -44.85110000     -34.40590000     -74.60650000
H      -45.67450000     -33.87590000     -73.17420000
C      -43.55420000     -33.31420000     -73.17410000
H      -42.77010000     -33.20130000     -73.93970000
H      -43.50910000     -32.29160000     -72.67830000
C      -45.05230000     -32.38400000     -70.30450000
H      -44.33900000     -31.79560000     -70.87900000
H      -45.91960000     -32.54040000     -70.86130000
C      -44.41610000     -33.72560000     -69.87690000
C      -44.43050000     -34.29670000     -68.63300000
C      -43.53960000     -34.50350000     -70.84600000
H      -45.01240000     -33.91450000     -67.81850000
C      -42.96370000     -35.61090000     -70.25420000
C      -43.19120000     -34.42800000     -72.25150000
C      -42.23750000     -35.39430000     -72.60150000
S      -43.54990000     -35.79780000     -68.51650000
S      -41.91580000     -36.50670000     -71.29510000
H      -41.81570000     -35.52130000     -73.59400000
