40
Properties=species:S:1:pos:R:3 #=T CELL(abcABC):=T 1.889726e+02=T 90.00000=T Traj:=T positionsangstrom=T Step:=T 0=T Bead:=T pbc="F F F"
C      -45.27670000     -30.85000000     -70.34740000
C      -46.21260000     -31.58160000     -69.52000000
C      -47.46780000     -32.00160000     -70.05840000
C      -47.73900000     -31.74840000     -71.45650000
C      -46.84500000     -30.96230000     -72.20080000
C      -45.58180000     -30.58080000     -71.69040000
H      -44.34030000     -30.53840000     -69.86780000
H      -48.11590000     -32.50790000     -69.37790000
H      -47.01660000     -30.91110000     -73.28840000
H      -44.86970000     -30.10920000     -72.34230000
C      -48.91750000     -32.26680000     -72.18650000
H      -49.34440000     -31.38160000     -72.70000000
H      -49.66600000     -32.68420000     -71.49420000
C      -45.95320000     -31.91650000     -68.05940000
H      -45.90220000     -31.01530000     -67.41770000
H      -46.63800000     -32.60390000     -67.56650000
S      -48.69390000     -33.43150000     -73.57680000
S      -44.26550000     -32.64200000     -67.71640000
C      -48.05960000     -35.01000000     -72.96470000
H      -48.87920000     -35.62710000     -72.47040000
H      -47.87720000     -35.57550000     -73.86950000
C      -44.53340000     -34.51330000     -67.81360000
H      -45.37510000     -34.64010000     -67.16950000
H      -43.57960000     -34.98110000     -67.35280000
C      -44.82690000     -34.93400000     -69.27710000
H      -45.25860000     -35.99940000     -69.24990000
H      -45.66790000     -34.25210000     -69.78000000
C      -46.80440000     -34.89620000     -71.96180000
H      -46.77090000     -35.82770000     -71.46650000
H      -47.07980000     -34.25710000     -71.10240000
C      -45.43540000     -34.54810000     -72.60010000
C      -45.26260000     -34.21970000     -73.92250000
C      -44.18830000     -34.49870000     -71.75910000
H      -46.03320000     -34.20320000     -74.75790000
C      -43.08260000     -34.21670000     -72.54180000
C      -43.81190000     -34.78590000     -70.36730000
C      -42.47230000     -34.93320000     -70.23180000
S      -43.52280000     -33.86360000     -74.24970000
S      -41.55410000     -34.45210000     -71.71120000
H      -41.94750000     -34.98510000     -69.32080000
