40
Properties=species:S:1:pos:R:3 #=T CELL(abcABC):=T 1.889726e+02=T 90.00000=T Traj:=T positionsangstrom=T Step:=T 0=T Bead:=T pbc="F F F"
C      -46.49340000     -35.63760000     -74.21170000
C      -46.31510000     -34.46360000     -73.51620000
C      -46.54050000     -34.46330000     -72.11810000
C      -46.78110000     -35.64000000     -71.44100000
C      -47.15990000     -36.75510000     -72.19800000
C      -46.93590000     -36.81280000     -73.54370000
H      -46.23400000     -35.76290000     -75.25620000
H      -46.30100000     -33.60570000     -71.53040000
H      -47.35250000     -37.71940000     -71.61870000
H      -47.17450000     -37.72880000     -74.07770000
C      -46.92640000     -35.62960000     -69.93590000
H      -47.76290000     -36.19840000     -69.60450000
H      -47.04880000     -34.55030000     -69.66000000
C      -45.85380000     -33.20990000     -74.23380000
H      -46.40600000     -33.24700000     -75.19150000
H      -46.11990000     -32.37370000     -73.63180000
S      -45.52360000     -36.46060000     -69.00410000
S      -44.05040000     -33.27420000     -74.61830000
C      -44.32680000     -35.22700000     -68.34760000
H      -44.72770000     -34.73100000     -67.45570000
H      -43.50760000     -35.86890000     -67.96320000
C      -43.19500000     -33.66700000     -72.92650000
H      -42.22650000     -34.22980000     -73.17750000
H      -43.93750000     -34.12730000     -72.25740000
C      -42.65590000     -32.37040000     -72.13630000
H      -42.05450000     -32.80410000     -71.38030000
H      -41.99880000     -31.78300000     -72.81630000
C      -43.84450000     -34.15170000     -69.37550000
H      -43.91790000     -34.64110000     -70.34890000
H      -42.77770000     -33.94510000     -69.26340000
C      -44.69840000     -32.91350000     -69.42210000
C      -45.69770000     -32.52600000     -68.48760000
C      -44.60410000     -31.87310000     -70.48430000
H      -45.92970000     -33.05910000     -67.60980000
C      -45.56040000     -30.85850000     -70.29660000
C      -43.68260000     -31.52030000     -71.51950000
C      -44.09170000     -30.36910000     -72.23260000
S      -46.57430000     -31.04270000     -68.90350000
S      -45.34770000     -29.56050000     -71.45100000
H      -43.51770000     -29.92310000     -73.02650000
