40
Properties=species:S:1:pos:R:3 #=T CELL(abcABC):=T 1.889726e+02=T 90.00000=T Traj:=T positionsangstrom=T Step:=T 0=T Bead:=T pbc="F F F"
C      -46.03350000     -33.14010000     -75.48910000
C      -45.66100000     -32.08840000     -74.58990000
C      -46.54830000     -31.69080000     -73.57550000
C      -47.79340000     -32.31650000     -73.36850000
C      -48.13660000     -33.29580000     -74.29240000
C      -47.29740000     -33.79290000     -75.27260000
H      -45.36950000     -33.36890000     -76.37410000
H      -46.33940000     -30.77720000     -73.04290000
H      -49.08790000     -33.78110000     -74.30020000
H      -47.73430000     -34.59330000     -75.88450000
C      -48.83930000     -31.81770000     -72.29170000
H      -49.42600000     -32.71540000     -72.02280000
H      -49.56890000     -31.10030000     -72.68370000
C      -44.25090000     -31.59630000     -74.83700000
H      -43.65410000     -32.27540000     -75.56710000
H      -44.16400000     -30.52930000     -75.29500000
S      -48.15290000     -31.04800000     -70.75810000
S      -43.08040000     -31.37200000     -73.28880000
C      -47.27690000     -32.39940000     -69.86010000
H      -46.66210000     -31.95300000     -69.09760000
H      -48.11950000     -32.93470000     -69.26020000
C      -43.29930000     -32.81800000     -72.15710000
H      -42.37610000     -33.42700000     -72.15440000
H      -43.94070000     -33.64830000     -72.48740000
C      -43.39060000     -32.39260000     -70.68920000
H      -42.59270000     -31.70550000     -70.48610000
H      -44.36840000     -31.93980000     -70.44960000
C      -46.52210000     -33.44490000     -70.73340000
H      -45.79130000     -32.94970000     -71.40240000
H      -47.16650000     -34.05780000     -71.41320000
C      -45.84510000     -34.51280000     -69.77340000
C      -46.48440000     -35.56680000     -69.06410000
C      -44.43210000     -34.45730000     -69.51630000
H      -47.48730000     -35.92290000     -69.21960000
C      -44.01150000     -35.58590000     -68.79670000
C      -43.30270000     -33.61130000     -69.84820000
C      -42.13190000     -34.08220000     -69.39700000
S      -45.34480000     -36.64300000     -68.34360000
S      -42.20540000     -35.61220000     -68.44990000
H      -41.20960000     -33.58900000     -69.61140000
