40
Properties=species:S:1:pos:R:3 #=T CELL(abcABC):=T 1.889726e+02=T 90.00000=T Traj:=T positionsangstrom=T Step:=T 0=T Bead:=T pbc="F F F"
C      -45.17020000     -30.94610000     -70.49490000
C      -46.05610000     -31.66630000     -69.71190000
C      -47.20040000     -32.27460000     -70.28100000
C      -47.50110000     -31.85090000     -71.55540000
C      -46.63550000     -31.11370000     -72.41650000
C      -45.42010000     -30.73130000     -71.85980000
H      -44.25860000     -30.59530000     -69.98490000
H      -47.86230000     -32.91950000     -69.71080000
H      -47.01190000     -30.82120000     -73.42280000
H      -44.65030000     -30.21090000     -72.44120000
C      -48.80310000     -32.44950000     -72.04190000
H      -49.52950000     -31.73910000     -72.39260000
H      -49.28830000     -32.99570000     -71.23250000
C      -45.77870000     -31.80910000     -68.22570000
H      -45.80990000     -30.80810000     -67.73090000
H      -46.69710000     -32.30470000     -67.83600000
S      -48.69400000     -33.54250000     -73.53250000
S      -44.14150000     -32.55670000     -67.73820000
C      -48.06200000     -35.07890000     -72.82350000
H      -48.84460000     -35.53560000     -72.32820000
H      -47.78780000     -35.72060000     -73.72540000
C      -44.39480000     -34.42770000     -67.81720000
H      -45.01910000     -34.81220000     -67.01160000
H      -43.39390000     -34.84990000     -67.60650000
C      -44.91680000     -34.92990000     -69.18560000
H      -45.03530000     -35.92540000     -69.21450000
H      -45.81520000     -34.37020000     -69.32750000
C      -46.84950000     -34.93250000     -71.86030000
H      -46.55990000     -36.01270000     -71.53210000
H      -47.23450000     -34.39640000     -71.02820000
C      -45.54380000     -34.35880000     -72.47920000
C      -45.40590000     -33.86270000     -73.78710000
C      -44.33670000     -34.35870000     -71.67460000
H      -45.98890000     -33.55540000     -74.61040000
C      -43.25910000     -34.10430000     -72.49640000
C      -43.97430000     -34.73810000     -70.33010000
C      -42.64360000     -34.81410000     -70.25520000
S      -43.69180000     -33.67680000     -74.15270000
S      -41.75070000     -34.60350000     -71.70870000
H      -42.07770000     -35.03790000     -69.32530000
