40
Properties=species:S:1:pos:R:3 #=T CELL(abcABC):=T 1.889726e+02=T 90.00000=T Traj:=T positionsangstrom=T Step:=T 0=T Bead:=T pbc="F F F"
C      -46.35870000     -35.72560000     -74.04810000
C      -46.19170000     -34.46280000     -73.45700000
C      -46.51700000     -34.29950000     -72.13210000
C      -46.98430000     -35.44430000     -71.38090000
C      -47.30930000     -36.59980000     -72.05650000
C      -47.03430000     -36.72830000     -73.43160000
H      -46.02400000     -35.83730000     -75.07060000
H      -46.28530000     -33.30820000     -71.68960000
H      -47.54850000     -37.51990000     -71.56300000
H      -47.02300000     -37.71810000     -73.91820000
C      -47.13520000     -35.44370000     -69.90240000
H      -48.14960000     -35.69710000     -69.53820000
H      -47.04300000     -34.46550000     -69.55740000
C      -45.57860000     -33.33320000     -74.23650000
H      -45.97140000     -33.20470000     -75.22280000
H      -45.65130000     -32.38250000     -73.66380000
S      -45.72040000     -36.48910000     -69.04970000
S      -43.66380000     -33.65340000     -74.50840000
C      -44.57020000     -35.17940000     -68.42180000
H      -44.95150000     -34.75810000     -67.49950000
H      -43.66440000     -35.65550000     -68.10310000
C      -43.00200000     -33.71700000     -72.83900000
H      -42.18880000     -34.47310000     -72.96640000
H      -43.80550000     -34.24720000     -72.22220000
C      -42.56080000     -32.37080000     -72.18610000
H      -41.83890000     -32.54510000     -71.35140000
H      -41.98120000     -31.82820000     -72.89630000
C      -44.16230000     -34.22810000     -69.49050000
H      -44.18590000     -34.75540000     -70.45160000
H      -43.12600000     -34.00960000     -69.31240000
C      -44.84390000     -32.88510000     -69.54000000
C      -45.76450000     -32.47530000     -68.61780000
C      -44.66600000     -31.86160000     -70.55730000
H      -46.24190000     -33.09650000     -67.84700000
C      -45.52530000     -30.76770000     -70.30500000
C      -43.72010000     -31.60260000     -71.61110000
C      -43.91770000     -30.33050000     -72.05870000
S      -46.65200000     -30.99210000     -69.02770000
S      -45.27810000     -29.46610000     -71.45030000
H      -43.39260000     -29.98170000     -72.95590000
