40
Properties=species:S:1:pos:R:3 #=T CELL(abcABC):=T 1.889726e+02=T 90.00000=T Traj:=T positionsangstrom=T Step:=T 0=T Bead:=T pbc="F F F"
C      -46.51910000     -33.08120000     -74.95820000
C      -45.64210000     -33.28000000     -73.91270000
C      -45.63430000     -32.34910000     -72.87780000
C      -46.50670000     -31.28380000     -72.94010000
C      -47.38700000     -31.06690000     -73.96600000
C      -47.39860000     -32.03210000     -74.99950000
H      -46.48540000     -33.68770000     -75.79560000
H      -45.04370000     -32.52190000     -71.98570000
H      -48.21240000     -30.43660000     -73.88680000
H      -47.95760000     -31.80530000     -75.90410000
C      -46.47020000     -30.17100000     -71.91840000
H      -46.61520000     -29.37100000     -72.52580000
H      -45.50090000     -30.20250000     -71.36120000
C      -44.77090000     -34.47590000     -73.81620000
H      -44.21620000     -34.66030000     -74.74710000
H      -44.02580000     -34.32220000     -72.95420000
S      -47.79630000     -30.11370000     -70.56030000
S      -45.65570000     -36.11380000     -73.32870000
C      -47.01510000     -31.22700000     -69.23470000
H      -46.15850000     -30.64970000     -68.91790000
H      -47.58610000     -31.21790000     -68.32390000
C      -46.61820000     -35.47110000     -71.87330000
H      -47.68550000     -35.73040000     -72.01170000
H      -46.71840000     -34.38600000     -71.72920000
C      -46.22440000     -36.13610000     -70.53210000
H      -46.94190000     -35.81380000     -69.72790000
H      -46.33760000     -37.22900000     -70.67210000
C      -46.60960000     -32.65390000     -69.70730000
H      -46.75790000     -32.83140000     -70.81660000
H      -47.19440000     -33.34580000     -69.14740000
C      -45.14690000     -32.96570000     -69.52080000
C      -44.18490000     -32.03330000     -69.11080000
C      -44.50470000     -34.30470000     -69.72390000
H      -44.42390000     -30.98360000     -68.86750000
C      -43.11960000     -34.15180000     -69.62050000
C      -44.83620000     -35.68350000     -70.17980000
C      -43.69360000     -36.45320000     -70.28760000
S      -42.49770000     -32.64140000     -69.04920000
S      -42.24570000     -35.55670000     -69.87770000
H      -43.68820000     -37.49970000     -70.62860000
