40
Properties=species:S:1:pos:R:3 #=T CELL(abcABC):=T 1.889726e+02=T 90.00000=T Traj:=T positionsangstrom=T Step:=T 0=T Bead:=T pbc="F F F"
C      -46.54930000     -35.62270000     -74.12310000
C      -46.09190000     -34.50810000     -73.42940000
C      -46.31620000     -34.46880000     -72.02950000
C      -46.97180000     -35.51580000     -71.35910000
C      -47.19150000     -36.70550000     -72.10720000
C      -47.06220000     -36.74980000     -73.44850000
H      -46.53720000     -35.66130000     -75.17340000
H      -45.90490000     -33.55290000     -71.51840000
H      -47.73950000     -37.48290000     -71.56530000
H      -47.54180000     -37.48770000     -74.09000000
C      -47.24730000     -35.47460000     -69.85560000
H      -48.22650000     -35.98780000     -69.68270000
H      -47.22350000     -34.45720000     -69.54610000
C      -45.37260000     -33.33170000     -74.11840000
H      -45.87010000     -33.16480000     -75.03040000
H      -45.50360000     -32.48130000     -73.38810000
S      -45.96370000     -36.44380000     -68.95940000
S      -43.59440000     -33.67470000     -74.47270000
C      -44.73870000     -35.21330000     -68.39260000
H      -45.18340000     -34.56850000     -67.63230000
H      -43.90210000     -35.81920000     -67.92940000
C      -42.84740000     -33.89800000     -72.72850000
H      -41.87590000     -34.28960000     -72.88810000
H      -43.49950000     -34.57550000     -72.13860000
C      -42.57860000     -32.61170000     -71.94380000
H      -42.11670000     -32.91580000     -70.99280000
H      -41.79440000     -31.94570000     -72.42760000
C      -44.11540000     -34.15290000     -69.38360000
H      -43.86300000     -34.49540000     -70.36980000
H      -43.12770000     -34.03340000     -68.85230000
C      -44.94410000     -32.79920000     -69.49290000
C      -45.96240000     -32.40290000     -68.70860000
C      -44.66410000     -31.80020000     -70.52320000
H      -46.47820000     -32.85500000     -67.82580000
C      -45.49720000     -30.73410000     -70.43200000
C      -43.73210000     -31.65220000     -71.67220000
C      -43.85660000     -30.43720000     -72.30630000
S      -46.59900000     -30.79000000     -69.09390000
S      -45.18020000     -29.44950000     -71.64390000
H      -43.17680000     -30.00650000     -73.11770000
