40
Properties=species:S:1:pos:R:3 #=T CELL(abcABC):=T 1.889726e+02=T 90.00000=T Traj:=T positionsangstrom=T Step:=T 0=T Bead:=T pbc="F F F"
C      -46.49440000     -35.66130000     -74.10900000
C      -46.23360000     -34.46690000     -73.45260000
C      -46.47050000     -34.41530000     -72.08100000
C      -46.93650000     -35.55400000     -71.41040000
C      -47.11210000     -36.76060000     -72.09050000
C      -46.96340000     -36.81920000     -73.48500000
H      -46.34650000     -35.73390000     -75.20630000
H      -46.31920000     -33.48210000     -71.59530000
H      -47.58590000     -37.61080000     -71.60370000
H      -47.23870000     -37.71860000     -74.01510000
C      -47.12830000     -35.48390000     -69.91260000
H      -47.91500000     -36.18060000     -69.57700000
H      -47.33130000     -34.45250000     -69.50770000
C      -45.62650000     -33.26340000     -74.09950000
H      -46.06700000     -33.02520000     -75.12740000
H      -45.72030000     -32.33790000     -73.58570000
S      -45.71500000     -36.33000000     -69.15730000
S      -43.84070000     -33.50790000     -74.54120000
C      -44.27730000     -35.25790000     -68.53620000
H      -44.68150000     -34.99070000     -67.54640000
H      -43.46850000     -36.00370000     -68.44350000
C      -43.16660000     -33.74590000     -72.86820000
H      -42.29750000     -34.37430000     -72.84080000
H      -43.89550000     -34.31060000     -72.37190000
C      -42.69840000     -32.51770000     -72.05290000
H      -42.31050000     -32.95440000     -71.09410000
H      -41.89620000     -31.98200000     -72.61650000
C      -43.83110000     -34.08400000     -69.43600000
H      -43.59890000     -34.57580000     -70.40450000
H      -42.90080000     -33.60820000     -69.00190000
C      -44.76820000     -32.88320000     -69.59330000
C      -45.80340000     -32.62700000     -68.68230000
C      -44.59540000     -31.78130000     -70.47270000
H      -46.03030000     -33.21960000     -67.82720000
C      -45.47810000     -30.68860000     -70.18860000
C      -43.81730000     -31.62430000     -71.63370000
C      -44.04320000     -30.38450000     -72.21900000
S      -46.57930000     -31.06660000     -68.96930000
S      -45.32960000     -29.45020000     -71.36430000
H      -43.42520000     -30.03220000     -72.98520000
