40
Properties=species:S:1:pos:R:3 #=T CELL(abcABC):=T 1.889726e+02=T 90.00000=T Traj:=T positionsangstrom=T Step:=T 0=T Bead:=T pbc="F F F"
C      -45.24690000     -31.46840000     -69.93110000
C      -46.25910000     -32.26110000     -69.33170000
C      -47.32830000     -32.62270000     -70.16740000
C      -47.56560000     -32.16460000     -71.44710000
C      -46.58490000     -31.36060000     -72.01000000
C      -45.46160000     -31.08300000     -71.23490000
H      -44.37900000     -31.23550000     -69.32600000
H      -48.13730000     -33.28030000     -69.65050000
H      -46.78810000     -30.95180000     -73.00440000
H      -44.62600000     -30.51970000     -71.66710000
C      -48.83290000     -32.48850000     -72.17000000
H      -49.07080000     -31.61720000     -72.76090000
H      -49.60450000     -32.82440000     -71.55670000
C      -46.25640000     -32.62950000     -67.88890000
H      -46.63490000     -31.79260000     -67.20190000
H      -46.85690000     -33.52570000     -67.67700000
S      -48.59110000     -33.72770000     -73.60460000
S      -44.49580000     -33.05490000     -67.38220000
C      -47.80740000     -35.31130000     -72.95020000
H      -48.45830000     -35.97380000     -72.46680000
H      -47.45350000     -35.74700000     -73.87520000
C      -44.22530000     -34.82750000     -67.94870000
H      -44.74840000     -35.54970000     -67.37600000
H      -43.18500000     -35.10220000     -67.74400000
C      -44.41660000     -35.09570000     -69.44540000
H      -44.36110000     -36.11300000     -69.61180000
H      -45.49780000     -34.94690000     -69.49370000
C      -46.55060000     -35.23900000     -72.08330000
H      -46.16160000     -36.26900000     -72.00490000
H      -46.78130000     -34.72870000     -71.18600000
C      -45.42100000     -34.54050000     -72.75590000
C      -45.27060000     -34.22890000     -74.08800000
C      -44.25740000     -34.15690000     -71.97980000
H      -46.07040000     -34.18990000     -74.90100000
C      -43.28170000     -33.52730000     -72.74820000
C      -43.73680000     -34.35960000     -70.57130000
C      -42.50260000     -33.87040000     -70.41170000
S      -43.80900000     -33.23370000     -74.36980000
S      -41.80200000     -33.14000000     -71.80970000
H      -41.96290000     -33.93010000     -69.45180000
