40
Properties=species:S:1:pos:R:3 #=T CELL(abcABC):=T 1.889726e+02=T 90.00000=T Traj:=T positionsangstrom=T Step:=T 0=T Bead:=T pbc="F F F"
C      -45.30310000     -31.29230000     -70.27450000
C      -46.08530000     -32.12130000     -69.49880000
C      -47.23540000     -32.65810000     -70.08630000
C      -47.71390000     -32.23070000     -71.36290000
C      -46.92870000     -31.36520000     -72.06540000
C      -45.75630000     -30.84870000     -71.52780000
H      -44.43630000     -30.87200000     -69.77610000
H      -47.78700000     -33.40230000     -69.57630000
H      -47.19690000     -31.04000000     -73.05320000
H      -45.11710000     -30.15040000     -71.99130000
C      -48.99520000     -32.72650000     -72.01160000
H      -49.63420000     -31.92870000     -72.24750000
H      -49.54280000     -33.37280000     -71.32010000
C      -45.81000000     -32.38380000     -68.00060000
H      -45.78790000     -31.42320000     -67.54930000
H      -46.58440000     -33.14660000     -67.70790000
S      -48.52710000     -33.67450000     -73.52000000
S      -44.08910000     -33.18500000     -67.60020000
C      -47.88470000     -35.33090000     -73.02260000
H      -48.67720000     -35.84800000     -72.52560000
H      -47.70540000     -35.86930000     -73.89930000
C      -44.13050000     -34.96030000     -68.06120000
H      -44.89780000     -35.51460000     -67.53380000
H      -43.17530000     -35.36340000     -67.77070000
C      -44.32520000     -35.40730000     -69.50380000
H      -43.88200000     -36.46940000     -69.50450000
H      -45.40300000     -35.52870000     -69.61230000
C      -46.65890000     -35.31500000     -72.10200000
H      -46.38960000     -36.30790000     -71.72120000
H      -46.91170000     -34.76460000     -71.17180000
C      -45.42510000     -34.65550000     -72.63660000
C      -45.29630000     -34.15180000     -73.96250000
C      -44.29720000     -34.17210000     -71.86230000
H      -45.97350000     -34.31690000     -74.79370000
C      -43.44120000     -33.30350000     -72.54120000
C      -43.76360000     -34.49830000     -70.56500000
C      -42.54120000     -33.94670000     -70.33000000
S      -43.90900000     -33.14280000     -74.20950000
S      -41.94180000     -33.07150000     -71.73660000
H      -42.03390000     -34.02120000     -69.38490000
