40
Properties=species:S:1:pos:R:3 #=T CELL(abcABC):=T 1.889726e+02=T 90.00000=T Traj:=T positionsangstrom=T Step:=T 0=T Bead:=T pbc="F F F"
C      -46.56720000     -33.63930000     -75.08410000
C      -45.72980000     -33.87850000     -73.94810000
C      -45.50940000     -32.81950000     -73.03260000
C      -46.13910000     -31.60960000     -73.13500000
C      -46.98950000     -31.38340000     -74.18970000
C      -47.09090000     -32.33350000     -75.18640000
H      -46.66900000     -34.31540000     -75.90250000
H      -44.87100000     -32.91660000     -72.20580000
H      -47.45080000     -30.36150000     -74.36270000
H      -47.79340000     -32.12540000     -76.03970000
C      -45.93460000     -30.50280000     -72.15070000
H      -45.66270000     -29.52330000     -72.71960000
H      -45.03820000     -30.61170000     -71.53010000
C      -45.12550000     -35.20610000     -73.68280000
H      -44.88600000     -35.62230000     -74.67500000
H      -44.18620000     -35.11230000     -73.11700000
S      -47.50330000     -30.33300000     -71.17680000
S      -46.34680000     -36.34230000     -72.85830000
C      -47.11490000     -30.91500000     -69.40480000
H      -46.52480000     -30.14410000     -68.94970000
H      -48.03540000     -30.85710000     -68.86930000
C      -46.94780000     -35.42330000     -71.38410000
H      -48.04700000     -35.67540000     -71.41920000
H      -46.98080000     -34.39000000     -71.67320000
C      -46.25060000     -35.80560000     -70.03640000
H      -46.91520000     -35.38770000     -69.23110000
H      -46.37580000     -36.83150000     -69.86160000
C      -46.59720000     -32.36940000     -69.33600000
H      -47.11050000     -32.99220000     -70.09820000
H      -46.88840000     -32.65950000     -68.29270000
C      -45.07820000     -32.65020000     -69.42100000
C      -44.10430000     -31.66380000     -69.19440000
C      -44.44840000     -33.87510000     -69.66960000
H      -44.34820000     -30.66720000     -68.98800000
C      -43.03910000     -33.79600000     -69.57790000
C      -44.85900000     -35.24820000     -69.87420000
C      -43.89460000     -36.14150000     -69.97390000
S      -42.42960000     -32.22290000     -69.31360000
S      -42.23100000     -35.34070000     -69.86480000
H      -44.00840000     -37.19410000     -70.11600000
