40
Properties=species:S:1:pos:R:3 #=T CELL(abcABC):=T 1.889726e+02=T 90.00000=T Traj:=T positionsangstrom=T Step:=T 0=T Bead:=T pbc="F F F"
C      -45.61950000     -31.22970000     -69.95290000
C      -46.22540000     -32.12740000     -69.09480000
C      -47.39640000     -32.81720000     -69.49670000
C      -47.78550000     -32.71060000     -70.88380000
C      -47.05030000     -31.83320000     -71.74000000
C      -46.00320000     -31.05550000     -71.26680000
H      -44.74290000     -30.72440000     -69.61380000
H      -47.99520000     -33.42970000     -68.82660000
H      -47.24860000     -31.79600000     -72.82490000
H      -45.37630000     -30.48560000     -71.95370000
C      -48.84810000     -33.54270000     -71.52230000
H      -49.85610000     -33.03450000     -71.49100000
H      -48.93930000     -34.51440000     -70.97560000
C      -45.67030000     -32.41890000     -67.68690000
H      -45.51530000     -31.53980000     -67.08000000
H      -46.18330000     -33.18920000     -66.99180000
S      -48.54710000     -33.90580000     -73.35080000
S      -43.94160000     -33.00340000     -67.73700000
C      -47.62940000     -35.46790000     -73.30820000
H      -48.37260000     -36.35250000     -73.05020000
H      -47.35550000     -35.66030000     -74.33720000
C      -44.02320000     -34.72610000     -68.34650000
H      -44.69870000     -35.17570000     -67.65260000
H      -43.03120000     -35.18920000     -68.12390000
C      -44.46160000     -35.08070000     -69.72490000
H      -44.36180000     -36.20090000     -69.81110000
H      -45.55640000     -35.00790000     -69.80370000
C      -46.41410000     -35.51290000     -72.39190000
H      -45.97800000     -36.53090000     -72.51480000
H      -46.71950000     -35.26700000     -71.42580000
C      -45.36920000     -34.49370000     -72.82350000
C      -45.41170000     -33.82370000     -74.04170000
C      -44.17350000     -34.19680000     -72.12660000
H      -46.16560000     -33.95080000     -74.83300000
C      -43.36280000     -33.30500000     -72.85160000
C      -43.75350000     -34.32060000     -70.75510000
C      -42.58320000     -33.69420000     -70.53760000
S      -44.00760000     -32.85890000     -74.36090000
S      -41.93090000     -32.86040000     -71.94790000
H      -42.05060000     -33.68070000     -69.61310000
