40
Properties=species:S:1:pos:R:3 #=T CELL(abcABC):=T 1.889726e+02=T 90.00000=T Traj:=T positionsangstrom=T Step:=T 0=T Bead:=T pbc="F F F"
C      -45.41020000     -30.93020000     -70.10140000
C      -45.97610000     -31.97030000     -69.30140000
C      -47.01170000     -32.73390000     -69.86340000
C      -47.49690000     -32.50790000     -71.13330000
C      -46.86900000     -31.54320000     -71.93350000
C      -45.88100000     -30.73530000     -71.38960000
H      -44.67250000     -30.23440000     -69.65850000
H      -47.52940000     -33.59150000     -69.39980000
H      -47.09870000     -31.34090000     -72.98130000
H      -45.48570000     -29.90240000     -72.02270000
C      -48.68800000     -33.30490000     -71.59580000
H      -49.57080000     -32.57320000     -71.48880000
H      -48.90840000     -34.06870000     -70.85250000
C      -45.52320000     -32.20080000     -67.88480000
H      -45.34370000     -31.17820000     -67.40550000
H      -46.33860000     -32.60720000     -67.25990000
S      -48.80430000     -34.03540000     -73.25930000
S      -43.90650000     -33.13690000     -67.71110000
C      -47.75970000     -35.62450000     -73.29780000
H      -48.31680000     -36.39430000     -72.81280000
H      -47.53920000     -35.78720000     -74.39370000
C      -44.16830000     -34.92020000     -68.11020000
H      -44.90190000     -35.34120000     -67.40760000
H      -43.24270000     -35.38330000     -67.93240000
C      -44.68710000     -35.24300000     -69.54550000
H      -44.47420000     -36.37020000     -69.72230000
H      -45.79440000     -35.00520000     -69.52260000
C      -46.51990000     -35.37850000     -72.48180000
H      -46.04080000     -36.33150000     -72.23290000
H      -46.79420000     -35.08770000     -71.43820000
C      -45.47540000     -34.46610000     -72.92940000
C      -45.39780000     -33.81620000     -74.17610000
C      -44.39330000     -34.11700000     -71.99130000
H      -46.19380000     -33.91680000     -74.95480000
C      -43.47920000     -33.33470000     -72.66630000
C      -43.94730000     -34.41380000     -70.62140000
C      -42.62820000     -34.11870000     -70.43330000
S      -43.91180000     -32.82450000     -74.28690000
S      -41.97890000     -33.07800000     -71.79520000
H      -41.94300000     -34.30210000     -69.60440000
