40
Properties=species:S:1:pos:R:3 #=T CELL(abcABC):=T 1.889726e+02=T 90.00000=T Traj:=T positionsangstrom=T Step:=T 0=T Bead:=T pbc="F F F"
C      -46.52460000     -33.86500000     -74.99110000
C      -45.68890000     -33.97960000     -73.88240000
C      -45.55500000     -32.83700000     -73.07590000
C      -46.23310000     -31.62220000     -73.30280000
C      -46.99890000     -31.48550000     -74.46390000
C      -47.21270000     -32.66070000     -75.26580000
H      -46.60570000     -34.68610000     -75.66170000
H      -45.05060000     -33.05070000     -72.13210000
H      -47.56740000     -30.59010000     -74.60150000
H      -47.94340000     -32.62620000     -76.01080000
C      -46.10860000     -30.49680000     -72.28040000
H      -45.87440000     -29.54600000     -72.89200000
H      -45.22660000     -30.57340000     -71.62310000
C      -44.98760000     -35.31880000     -73.51660000
H      -44.71770000     -35.87370000     -74.44710000
H      -44.03200000     -34.99350000     -73.00320000
S      -47.67140000     -30.28300000     -71.21940000
S      -46.15180000     -36.40600000     -72.62680000
C      -46.92040000     -30.68720000     -69.64160000
H      -46.08640000     -30.06040000     -69.28630000
H      -47.71180000     -30.44160000     -68.90220000
C      -46.91810000     -35.33720000     -71.30050000
H      -48.04280000     -35.38360000     -71.36790000
H      -46.72920000     -34.31130000     -71.61020000
C      -46.36610000     -35.56940000     -69.91930000
H      -47.05160000     -35.13150000     -69.14590000
H      -46.49290000     -36.63290000     -69.54350000
C      -46.53170000     -32.23090000     -69.50490000
H      -46.98660000     -32.76850000     -70.35690000
H      -47.07980000     -32.63380000     -68.64630000
C      -45.03750000     -32.52080000     -69.44480000
C      -44.04270000     -31.55680000     -69.13770000
C      -44.41310000     -33.85260000     -69.56690000
H      -44.20800000     -30.45350000     -69.08950000
C      -43.04660000     -33.80460000     -69.68970000
C      -44.91480000     -35.22630000     -69.79430000
C      -43.90660000     -36.16720000     -69.85570000
S      -42.41210000     -32.17700000     -69.31560000
S      -42.28780000     -35.40350000     -69.91330000
H      -44.14850000     -37.15980000     -69.93910000
