40
Properties=species:S:1:pos:R:3 #=T CELL(abcABC):=T 1.889726e+02=T 90.00000=T Traj:=T positionsangstrom=T Step:=T 0=T Bead:=T pbc="F F F"
C      -46.56780000     -33.81080000     -75.05880000
C      -45.72310000     -33.98610000     -73.93910000
C      -45.59400000     -32.89590000     -73.08650000
C      -46.15780000     -31.65710000     -73.25680000
C      -47.11320000     -31.51340000     -74.31380000
C      -47.25680000     -32.59100000     -75.21820000
H      -46.73670000     -34.69410000     -75.69910000
H      -44.81300000     -32.97170000     -72.27720000
H      -47.60990000     -30.59240000     -74.42190000
H      -47.77720000     -32.54280000     -76.19490000
C      -46.04070000     -30.59700000     -72.20720000
H      -45.83810000     -29.63790000     -72.61910000
H      -45.20110000     -30.82820000     -71.53690000
C      -45.04570000     -35.25860000     -73.66460000
H      -44.86080000     -35.86020000     -74.51700000
H      -44.11530000     -35.10900000     -73.17050000
S      -47.57590000     -30.39590000     -71.22290000
S      -46.19000000     -36.43530000     -72.65070000
C      -47.10090000     -30.91080000     -69.55620000
H      -46.37560000     -30.22000000     -69.15500000
H      -47.99680000     -30.75270000     -68.99730000
C      -47.07190000     -35.36560000     -71.40080000
H      -48.04220000     -35.81120000     -71.33880000
H      -47.15740000     -34.35220000     -71.71600000
C      -46.39050000     -35.55020000     -69.99140000
H      -47.02180000     -35.04910000     -69.35990000
H      -46.43070000     -36.63790000     -69.83980000
C      -46.50660000     -32.29720000     -69.32840000
H      -46.91700000     -33.11240000     -69.96010000
H      -46.71830000     -32.60780000     -68.23530000
C      -44.97970000     -32.47140000     -69.50910000
C      -44.00550000     -31.44210000     -69.37940000
C      -44.39060000     -33.75600000     -69.67640000
H      -44.12660000     -30.37960000     -69.17450000
C      -43.03000000     -33.75460000     -69.64790000
C      -44.90510000     -35.08520000     -69.89200000
C      -43.88340000     -36.01330000     -70.03000000
S      -42.30900000     -32.15920000     -69.25390000
S      -42.30620000     -35.33900000     -69.74570000
H      -44.09090000     -36.97470000     -70.24460000
