40
Properties=species:S:1:pos:R:3 #=T CELL(abcABC):=T 1.889726e+02=T 90.00000=T Traj:=T positionsangstrom=T Step:=T 0=T Bead:=T pbc="F F F"
C      -45.34310000     -32.39740000     -75.20370000
C      -46.49800000     -32.29250000     -74.36170000
C      -46.89490000     -33.42180000     -73.66740000
C      -46.31800000     -34.72120000     -73.87080000
C      -45.24220000     -34.84280000     -74.78640000
C      -44.80720000     -33.70580000     -75.41370000
H      -44.95010000     -31.46130000     -75.63040000
H      -47.74340000     -33.41140000     -72.99590000
H      -44.80160000     -35.82090000     -75.07140000
H      -43.91790000     -33.80670000     -76.01280000
C      -47.03700000     -35.91480000     -73.39980000
H      -47.37820000     -36.41810000     -74.31220000
H      -47.88410000     -35.64840000     -72.80000000
C      -47.25170000     -30.96370000     -74.10080000
H      -46.58690000     -30.19600000     -74.41180000
H      -48.08050000     -30.78830000     -74.72530000
S      -45.96970000     -37.13990000     -72.55570000
S      -47.88700000     -30.60200000     -72.45050000
C      -45.19490000     -36.24950000     -71.11260000
H      -45.96040000     -36.22010000     -70.32990000
H      -44.40790000     -36.87050000     -70.66220000
C      -46.92510000     -31.58950000     -71.22170000
H      -47.29080000     -32.57620000     -71.27490000
H      -47.28480000     -31.31640000     -70.20340000
C      -45.40380000     -31.55070000     -71.31800000
H      -44.96510000     -32.25290000     -71.98020000
H      -45.09620000     -30.48950000     -71.53640000
C      -44.66130000     -34.81040000     -71.32090000
H      -45.46540000     -34.08990000     -71.47960000
H      -44.01950000     -34.66660000     -72.22320000
C      -43.97850000     -34.40620000     -70.00460000
C      -43.22880000     -35.18910000     -69.17090000
C      -44.22060000     -33.05930000     -69.46460000
H      -42.82720000     -36.22080000     -69.26310000
C      -43.69230000     -32.95890000     -68.13960000
C      -44.81730000     -31.82250000     -69.90280000
C      -44.74570000     -30.85420000     -68.89170000
S      -42.77300000     -34.36230000     -67.68550000
S      -44.06930000     -31.42990000     -67.37400000
H      -44.99900000     -29.80580000     -69.03550000
