40
Properties=species:S:1:pos:R:3 #=T CELL(abcABC):=T 1.889726e+02=T 90.00000=T Traj:=T positionsangstrom=T Step:=T 0=T Bead:=T pbc="F F F"
C      -48.43850000     -34.21600000     -72.41100000
C      -48.11490000     -32.98120000     -72.98060000
C      -48.02180000     -31.90420000     -72.14060000
C      -48.19850000     -32.03540000     -70.72770000
C      -48.50320000     -33.31310000     -70.23930000
C      -48.60210000     -34.44620000     -71.06280000
H      -48.50850000     -35.13560000     -73.00780000
H      -47.77130000     -30.94380000     -72.58430000
H      -48.63680000     -33.56600000     -69.17050000
H      -48.76020000     -35.40940000     -70.65150000
C      -48.07800000     -30.85590000     -69.78910000
H      -48.29450000     -31.15110000     -68.77110000
H      -48.86680000     -30.13050000     -70.03930000
C      -47.74910000     -32.98520000     -74.44160000
H      -47.83810000     -33.97240000     -74.80510000
H      -48.52200000     -32.37120000     -75.00800000
S      -46.46450000     -29.95510000     -69.78400000
S      -45.93750000     -32.33810000     -74.71040000
C      -45.25230000     -31.29450000     -69.19820000
H      -44.55130000     -30.71700000     -68.59080000
H      -45.86630000     -31.86920000     -68.49870000
C      -45.00760000     -33.64580000     -73.82720000
H      -44.71700000     -34.47180000     -74.54140000
H      -45.69970000     -34.06650000     -73.11160000
C      -43.69730000     -33.27860000     -73.24310000
H      -42.90330000     -33.11650000     -74.00290000
H      -43.71870000     -32.29010000     -72.71740000
C      -44.60000000     -32.02490000     -70.38400000
H      -43.94720000     -31.31000000     -70.88450000
H      -45.37620000     -32.34340000     -71.13860000
C      -43.96070000     -33.37340000     -69.93890000
C      -43.72830000     -33.74280000     -68.68370000
C      -43.39700000     -34.33140000     -70.88300000
H      -44.10220000     -33.19520000     -67.79710000
C      -42.86330000     -35.46780000     -70.20440000
C      -43.25070000     -34.32640000     -72.30620000
C      -42.64310000     -35.52900000     -72.68690000
S      -42.97270000     -35.32570000     -68.49710000
S      -42.17130000     -36.60980000     -71.36450000
H      -42.39920000     -35.80170000     -73.72930000
