40
Properties=species:S:1:pos:R:3 #=T CELL(abcABC):=T 1.889726e+02=T 90.00000=T Traj:=T positionsangstrom=T Step:=T 0=T Bead:=T pbc="F F F"
C      -45.88100000     -31.61840000     -69.73540000
C      -46.63330000     -32.65860000     -69.30890000
C      -47.53830000     -33.25870000     -70.19470000
C      -47.64600000     -32.82620000     -71.51150000
C      -46.99660000     -31.64310000     -71.88280000
C      -46.10070000     -31.03740000     -70.95210000
H      -45.10440000     -31.24010000     -69.09450000
H      -48.21160000     -34.10000000     -69.79260000
H      -47.25760000     -31.12840000     -72.78610000
H      -45.43540000     -30.16760000     -71.29040000
C      -48.62280000     -33.52600000     -72.41620000
H      -49.50800000     -32.93390000     -72.43740000
H      -48.90120000     -34.56800000     -72.06140000
C      -46.59220000     -33.17670000     -67.86550000
H      -46.89090000     -32.29100000     -67.19060000
H      -47.27410000     -33.99550000     -67.68430000
S      -47.95370000     -33.65680000     -74.12010000
S      -44.92360000     -33.71440000     -67.33580000
C      -47.17040000     -35.32250000     -73.79810000
H      -48.05230000     -35.95870000     -73.48020000
H      -46.74660000     -35.68060000     -74.70350000
C      -44.50240000     -35.32190000     -68.16720000
H      -45.13620000     -36.15360000     -67.83750000
H      -43.45880000     -35.63720000     -67.82020000
C      -44.41680000     -35.30910000     -69.71530000
H      -43.84730000     -36.20630000     -69.91840000
H      -45.41950000     -35.50620000     -70.12990000
C      -46.05720000     -35.39360000     -72.76010000
H      -45.60690000     -36.38390000     -72.87240000
H      -46.37940000     -35.41180000     -71.76350000
C      -45.01230000     -34.29530000     -72.93380000
C      -44.67190000     -33.73750000     -74.12380000
C      -44.02590000     -33.89680000     -71.86510000
H      -45.17160000     -33.95280000     -75.06550000
C      -43.18230000     -32.92890000     -72.41310000
C      -43.79490000     -34.12670000     -70.48560000
C      -42.82780000     -33.36200000     -69.95360000
S      -43.32810000     -32.56970000     -74.12060000
S      -42.24470000     -32.18200000     -71.11970000
H      -42.30770000     -33.59460000     -69.02780000
