40
Properties=species:S:1:pos:R:3 #=T CELL(abcABC):=T 1.889726e+02=T 90.00000=T Traj:=T positionsangstrom=T Step:=T 0=T Bead:=T pbc="F F F"
C      -45.94120000     -31.54730000     -69.90040000
C      -46.72650000     -32.66560000     -69.49170000
C      -47.58200000     -33.22940000     -70.44990000
C      -47.72370000     -32.73210000     -71.75350000
C      -46.96120000     -31.54740000     -72.10840000
C      -46.08250000     -30.99410000     -71.16730000
H      -45.29870000     -31.12140000     -69.08640000
H      -48.09420000     -34.20250000     -70.30840000
H      -47.08570000     -31.25550000     -73.12540000
H      -45.51110000     -30.09630000     -71.47030000
C      -48.71760000     -33.26980000     -72.67280000
H      -49.46910000     -32.55640000     -72.87990000
H      -49.20320000     -34.11430000     -72.28400000
C      -46.71690000     -33.28090000     -68.15590000
H      -47.19290000     -32.51410000     -67.53130000
H      -47.18200000     -34.24810000     -68.12150000
S      -47.90040000     -33.81590000     -74.24930000
S      -45.08800000     -33.62980000     -67.34070000
C      -47.13980000     -35.37060000     -73.68780000
H      -47.95720000     -35.95140000     -73.14300000
H      -46.76550000     -35.99520000     -74.51660000
C      -44.59020000     -35.26530000     -68.11530000
H      -45.16240000     -36.11480000     -67.69330000
H      -43.51770000     -35.30690000     -67.87670000
C      -44.65230000     -35.20850000     -69.65510000
H      -44.37370000     -36.22170000     -69.94440000
H      -45.67900000     -35.06310000     -69.99310000
C      -46.03750000     -35.23060000     -72.64400000
H      -45.51510000     -36.24470000     -72.53530000
H      -46.48110000     -35.23370000     -71.63530000
C      -45.01840000     -34.14460000     -72.69110000
C      -44.72980000     -33.47040000     -73.85350000
C      -44.07390000     -33.85520000     -71.71470000
H      -45.29010000     -33.60080000     -74.79190000
C      -43.08800000     -32.95860000     -72.22640000
C      -43.76570000     -34.22340000     -70.35610000
C      -42.65170000     -33.56890000     -69.82770000
S      -43.36170000     -32.40780000     -73.87420000
S      -41.86660000     -32.63850000     -71.05870000
H      -42.09080000     -33.77540000     -68.90070000
