40
Properties=species:S:1:pos:R:3 #=T CELL(abcABC):=T 1.889726e+02=T 90.00000=T Traj:=T positionsangstrom=T Step:=T 0=T Bead:=T pbc="F F F"
C      -45.85770000     -31.76710000     -69.84260000
C      -46.77460000     -32.71860000     -69.43610000
C      -47.69970000     -33.17410000     -70.34900000
C      -47.84820000     -32.57020000     -71.63230000
C      -47.01260000     -31.48950000     -71.94810000
C      -45.94940000     -31.14150000     -71.07290000
H      -44.92800000     -31.71250000     -69.24290000
H      -48.48280000     -33.85970000     -70.08160000
H      -47.22930000     -31.00700000     -72.90270000
H      -45.33410000     -30.32910000     -71.36160000
C      -48.76650000     -33.23660000     -72.68950000
H      -49.53020000     -32.47010000     -73.07100000
H      -49.25830000     -34.07110000     -72.14800000
C      -46.66930000     -33.27510000     -68.00490000
H      -47.18450000     -32.65120000     -67.33560000
H      -47.34820000     -34.21580000     -67.92960000
S      -48.00030000     -33.88280000     -74.14920000
S      -44.90460000     -33.55950000     -67.41310000
C      -47.08930000     -35.42400000     -73.70520000
H      -47.77030000     -36.15120000     -73.34770000
H      -46.75130000     -35.75730000     -74.68490000
C      -44.56240000     -35.13600000     -68.27330000
H      -45.28330000     -35.88570000     -67.81410000
H      -43.61880000     -35.46420000     -67.87540000
C      -44.70780000     -35.24780000     -69.76290000
H      -44.57060000     -36.27510000     -70.18850000
H      -45.72490000     -35.01550000     -69.93630000
C      -46.04090000     -35.29220000     -72.59820000
H      -45.63840000     -36.26150000     -72.44290000
H      -46.57970000     -35.01200000     -71.71170000
C      -44.89660000     -34.28070000     -72.89790000
C      -44.62250000     -33.62560000     -74.06660000
C      -43.99980000     -33.89100000     -71.85240000
H      -45.18760000     -33.77110000     -74.99220000
C      -43.04180000     -32.93840000     -72.26080000
C      -43.78400000     -34.29530000     -70.45590000
C      -42.81360000     -33.54150000     -69.81660000
S      -43.25660000     -32.44520000     -73.92140000
S      -42.04740000     -32.42880000     -70.96570000
H      -42.43410000     -33.54880000     -68.80200000
