40
Properties=species:S:1:pos:R:3 #=T CELL(abcABC):=T 1.889726e+02=T 90.00000=T Traj:=T positionsangstrom=T Step:=T 0=T Bead:=T pbc="F F F"
C      -45.68740000     -30.05380000     -72.12030000
C      -45.04780000     -30.15080000     -70.82570000
C      -45.72760000     -30.81870000     -69.82120000
C      -47.01940000     -31.29020000     -70.03390000
C      -47.61910000     -31.13760000     -71.25780000
C      -46.99220000     -30.45260000     -72.32060000
H      -45.13530000     -29.72860000     -73.01280000
H      -45.32960000     -30.88100000     -68.81790000
H      -48.68920000     -31.39090000     -71.36990000
H      -47.42600000     -30.42740000     -73.30750000
C      -47.82390000     -31.95920000     -68.91650000
H      -48.78330000     -31.51360000     -68.86120000
H      -47.43380000     -31.65670000     -67.90530000
C      -43.65380000     -29.62070000     -70.68650000
H      -43.41000000     -28.90420000     -71.48620000
H      -43.57650000     -29.12590000     -69.71360000
S      -48.10220000     -33.72930000     -69.06190000
S      -42.27860000     -30.87410000     -70.77220000
C      -46.37340000     -34.44510000     -68.49220000
H      -46.10830000     -33.79700000     -67.59090000
H      -46.52640000     -35.51260000     -68.20850000
C      -42.85340000     -32.12600000     -71.97630000
H      -42.42180000     -31.89340000     -72.98830000
H      -43.97520000     -32.12240000     -72.08460000
C      -42.56040000     -33.66080000     -71.61440000
H      -41.52950000     -33.99500000     -71.91160000
H      -42.56390000     -33.73660000     -70.49940000
C      -45.35690000     -34.31730000     -69.57930000
H      -44.44260000     -34.72750000     -69.15910000
H      -45.24630000     -33.23040000     -69.85400000
C      -45.61330000     -35.08580000     -70.79650000
C      -46.72660000     -35.85770000     -71.01910000
C      -44.78740000     -35.08220000     -71.99740000
H      -47.49270000     -36.14370000     -70.28250000
C      -45.28270000     -35.90760000     -73.00580000
C      -43.46590000     -34.56930000     -72.37400000
C      -43.10780000     -35.02200000     -73.66080000
S      -46.65800000     -36.82010000     -72.49240000
S      -44.23080000     -36.13590000     -74.33540000
H      -42.10690000     -34.75980000     -74.04740000
