40
Properties=species:S:1:pos:R:3 #=T CELL(abcABC):=T 1.889726e+02=T 90.00000=T Traj:=T positionsangstrom=T Step:=T 0=T Bead:=T pbc="F F F"
C      -46.57130000     -28.83500000     -71.99380000
C      -45.82850000     -29.62120000     -71.06910000
C      -46.48340000     -30.68180000     -70.44880000
C      -47.84390000     -30.94720000     -70.79820000
C      -48.54960000     -30.18990000     -71.76910000
C      -47.92820000     -29.07140000     -72.28910000
H      -46.19030000     -28.01230000     -72.53240000
H      -46.01910000     -31.30590000     -69.72070000
H      -49.58990000     -30.47080000     -72.01680000
H      -48.46500000     -28.39820000     -73.10220000
C      -48.58010000     -32.00260000     -70.06540000
H      -49.66670000     -31.90620000     -70.10600000
H      -48.28140000     -31.90640000     -69.00350000
C      -44.30870000     -29.41320000     -70.86530000
H      -43.92350000     -29.13380000     -71.88080000
H      -44.08690000     -28.55560000     -70.20830000
S      -48.25390000     -33.72780000     -70.46920000
S      -43.42530000     -30.86990000     -70.16660000
C      -46.95680000     -34.28840000     -69.20950000
H      -47.08150000     -33.64190000     -68.32190000
H      -47.41320000     -35.23180000     -68.85780000
C      -43.48230000     -32.13870000     -71.48220000
H      -42.99720000     -31.77240000     -72.40120000
H      -44.49050000     -32.42710000     -71.86600000
C      -42.71950000     -33.33700000     -70.93580000
H      -41.69560000     -33.14040000     -70.92440000
H      -42.97990000     -33.59640000     -69.88490000
C      -45.57470000     -34.39320000     -69.79410000
H      -44.85040000     -34.68520000     -69.01830000
H      -45.21510000     -33.47220000     -70.19600000
C      -45.25470000     -35.52480000     -70.80520000
C      -45.93610000     -36.67120000     -70.93850000
C      -44.07930000     -35.47260000     -71.63000000
H      -46.89980000     -36.93570000     -70.50340000
C      -44.06760000     -36.51980000     -72.48260000
C      -42.92250000     -34.56070000     -71.74750000
C      -42.09150000     -35.00280000     -72.74140000
S      -45.34310000     -37.64530000     -72.29150000
S      -42.66560000     -36.53060000     -73.43920000
H      -41.20410000     -34.71400000     -73.19130000
