40
Properties=species:S:1:pos:R:3 #=T CELL(abcABC):=T 1.889726e+02=T 90.00000=T Traj:=T positionsangstrom=T Step:=T 0=T Bead:=T pbc="F F F"
C      -46.09280000     -31.79860000     -69.45880000
C      -46.62990000     -33.08620000     -69.11330000
C      -47.51140000     -33.58850000     -70.08800000
C      -47.77920000     -32.99760000     -71.32690000
C      -47.23410000     -31.79070000     -71.61270000
C      -46.42130000     -31.20420000     -70.71020000
H      -45.27690000     -31.47670000     -68.84660000
H      -47.79290000     -34.56960000     -69.81700000
H      -47.39810000     -31.39690000     -72.61530000
H      -45.90710000     -30.37720000     -71.02130000
C      -48.78020000     -33.65520000     -72.19930000
H      -49.60290000     -32.95270000     -72.25280000
H      -49.20920000     -34.60290000     -71.90390000
C      -46.37570000     -33.84190000     -67.88060000
H      -46.71530000     -33.30250000     -66.93310000
H      -46.90070000     -34.79800000     -67.85620000
S      -48.15310000     -33.89410000     -73.91780000
S      -44.62650000     -34.04890000     -67.42160000
C      -46.97620000     -35.27120000     -73.78190000
H      -47.58510000     -36.20900000     -73.65000000
H      -46.33790000     -35.39350000     -74.71220000
C      -43.93740000     -35.43000000     -68.54750000
H      -44.33310000     -36.32250000     -68.01270000
H      -42.84230000     -35.53450000     -68.38390000
C      -44.27880000     -35.31430000     -70.01270000
H      -43.96310000     -36.17940000     -70.50240000
H      -45.34520000     -35.18160000     -70.06360000
C      -45.95560000     -35.16690000     -72.64570000
H      -45.45490000     -36.12100000     -72.66850000
H      -46.38790000     -34.99230000     -71.65000000
C      -45.06420000     -33.99710000     -72.92310000
C      -45.04650000     -33.16780000     -74.00110000
C      -44.03180000     -33.62890000     -72.01510000
H      -45.73800000     -33.05880000     -74.82420000
C      -43.28150000     -32.54660000     -72.51030000
C      -43.58170000     -34.08050000     -70.75210000
C      -42.53460000     -33.31170000     -70.27980000
S      -43.79290000     -31.91610000     -74.07190000
S      -41.99690000     -32.06790000     -71.36500000
H      -42.03210000     -33.44970000     -69.36400000
