40
Properties=species:S:1:pos:R:3 #=T CELL(abcABC):=T 1.889726e+02=T 90.00000=T Traj:=T positionsangstrom=T Step:=T 0=T Bead:=T pbc="F F F"
C      -46.03870000     -31.88050000     -69.37040000
C      -46.65340000     -33.12090000     -69.07710000
C      -47.46330000     -33.63150000     -70.12750000
C      -47.69360000     -32.96050000     -71.38020000
C      -47.11010000     -31.71370000     -71.50910000
C      -46.28390000     -31.16550000     -70.57730000
H      -45.48050000     -31.49050000     -68.51070000
H      -48.13550000     -34.47990000     -69.94100000
H      -47.41110000     -31.05810000     -72.36840000
H      -46.01470000     -30.21180000     -70.49800000
C      -48.79260000     -33.51160000     -72.25180000
H      -49.72860000     -32.86010000     -72.18670000
H      -49.05980000     -34.43940000     -71.81620000
C      -46.33750000     -33.92070000     -67.76070000
H      -46.80230000     -33.54740000     -66.86250000
H      -46.78040000     -34.89940000     -68.06390000
S      -48.42570000     -33.93580000     -74.01350000
S      -44.53660000     -33.90940000     -67.43900000
C      -47.23370000     -35.34460000     -73.78900000
H      -47.84620000     -36.13770000     -73.48870000
H      -46.88620000     -35.47480000     -74.78640000
C      -43.94940000     -35.26950000     -68.41820000
H      -44.32470000     -36.24040000     -68.03320000
H      -42.88330000     -35.28060000     -68.28790000
C      -44.33360000     -35.27490000     -69.95610000
H      -43.91960000     -36.28520000     -70.29720000
H      -45.43770000     -35.31230000     -69.90940000
C      -45.88000000     -35.30740000     -72.92350000
H      -45.22670000     -36.17360000     -73.17600000
H      -46.17060000     -35.43990000     -71.86020000
C      -45.00060000     -34.07480000     -73.10300000
C      -44.95290000     -33.24740000     -74.15770000
C      -43.95060000     -33.69750000     -72.09220000
H      -45.56600000     -33.23550000     -75.02900000
C      -43.17090000     -32.63340000     -72.50330000
C      -43.59440000     -34.11080000     -70.71240000
C      -42.59820000     -33.27950000     -70.18530000
S      -43.69310000     -31.95890000     -74.01520000
S      -42.06100000     -32.01730000     -71.31760000
H      -42.13510000     -33.52970000     -69.24780000
