40
Properties=species:S:1:pos:R:3 #=T CELL(abcABC):=T 1.889726e+02=T 90.00000=T Traj:=T positionsangstrom=T Step:=T 0=T Bead:=T pbc="F F F"
C      -46.16080000     -29.81610000     -72.43390000
C      -45.41770000     -29.94580000     -71.23210000
C      -45.96290000     -30.56410000     -70.11750000
C      -47.26780000     -31.05300000     -70.11700000
C      -47.98890000     -30.80620000     -71.29380000
C      -47.48530000     -30.22890000     -72.47580000
H      -45.79990000     -29.13830000     -73.28580000
H      -45.34600000     -30.68520000     -69.24940000
H      -49.09650000     -31.07400000     -71.38180000
H      -48.10710000     -30.20170000     -73.39150000
C      -47.96540000     -31.71160000     -68.98420000
H      -48.90610000     -31.18550000     -68.88660000
H      -47.48240000     -31.63350000     -68.00040000
C      -44.00760000     -29.39300000     -71.22730000
H      -43.66470000     -29.30430000     -72.24630000
H      -43.93360000     -28.51840000     -70.60040000
S      -48.31790000     -33.50680000     -69.33520000
S      -42.87480000     -30.80790000     -70.53050000
C      -46.74930000     -34.28450000     -68.97010000
H      -46.42950000     -34.04120000     -67.89530000
H      -47.06150000     -35.34710000     -68.86010000
C      -43.20910000     -32.30010000     -71.57670000
H      -42.84970000     -32.01410000     -72.58130000
H      -44.29420000     -32.45260000     -71.63950000
C      -42.56860000     -33.62810000     -71.13940000
H      -41.43800000     -33.67730000     -71.02300000
H      -42.89730000     -33.77010000     -70.13010000
C      -45.42990000     -34.14650000     -69.89300000
H      -44.59850000     -34.27330000     -69.20260000
H      -45.38870000     -33.08770000     -70.16530000
C      -45.51730000     -35.11370000     -70.96790000
C      -46.52970000     -35.98790000     -71.18820000
C      -44.36020000     -35.32020000     -71.86140000
H      -47.48430000     -35.94120000     -70.71740000
C      -44.62160000     -36.37020000     -72.70590000
C      -43.03960000     -34.73820000     -72.01890000
C      -42.45470000     -35.28170000     -73.13510000
S      -46.25590000     -36.97030000     -72.60770000
S      -43.30170000     -36.67150000     -73.81750000
H      -41.57720000     -34.90370000     -73.63740000
