40
Properties=species:S:1:pos:R:3 #=T CELL(abcABC):=T 1.889726e+02=T 90.00000=T Traj:=T positionsangstrom=T Step:=T 0=T Bead:=T pbc="F F F"
C      -46.02120000     -32.02290000     -69.37850000
C      -46.66690000     -33.21260000     -69.01250000
C      -47.66690000     -33.73380000     -69.88890000
C      -47.94010000     -33.02180000     -71.16890000
C      -47.29680000     -31.81470000     -71.41900000
C      -46.34300000     -31.32210000     -70.52710000
H      -45.22190000     -31.59850000     -68.68980000
H      -48.08030000     -34.69100000     -69.58560000
H      -47.50330000     -31.39240000     -72.40680000
H      -45.77600000     -30.38910000     -70.93770000
C      -49.00490000     -33.59230000     -72.06830000
H      -49.82950000     -32.85030000     -72.27740000
H      -49.43220000     -34.40130000     -71.61620000
C      -46.22910000     -33.95410000     -67.78820000
H      -46.62610000     -33.40810000     -66.93780000
H      -46.71270000     -34.98120000     -67.78680000
S      -48.50310000     -33.85510000     -73.92770000
S      -44.39330000     -34.03050000     -67.60180000
C      -47.09950000     -35.14200000     -73.89260000
H      -47.69100000     -36.08780000     -73.77720000
H      -46.79660000     -35.13960000     -74.95520000
C      -43.73890000     -35.51060000     -68.48090000
H      -44.33840000     -36.34610000     -68.11540000
H      -42.64290000     -35.59710000     -68.34190000
C      -44.06440000     -35.40290000     -70.02700000
H      -43.61770000     -36.26410000     -70.45270000
H      -45.10940000     -35.62810000     -70.19030000
C      -46.01400000     -35.03330000     -72.89890000
H      -45.56960000     -36.01190000     -72.88680000
H      -46.54050000     -34.97570000     -71.96650000
C      -45.00710000     -33.93730000     -73.04480000
C      -44.92150000     -33.19300000     -74.20530000
C      -44.06090000     -33.57610000     -72.02040000
H      -45.62870000     -33.20220000     -75.05540000
C      -43.30250000     -32.47710000     -72.47010000
C      -43.59740000     -34.07350000     -70.69650000
C      -42.46840000     -33.37180000     -70.25350000
S      -43.61910000     -31.90640000     -74.12430000
S      -42.07250000     -31.92620000     -71.34800000
H      -41.93640000     -33.47220000     -69.28510000
