40
Properties=species:S:1:pos:R:3 #=T CELL(abcABC):=T 1.889726e+02=T 90.00000=T Traj:=T positionsangstrom=T Step:=T 0=T Bead:=T pbc="F F F"
C      -48.41180000     -34.14860000     -72.40490000
C      -48.16430000     -32.92150000     -72.94020000
C      -48.00060000     -31.87220000     -72.05920000
C      -48.29150000     -32.03020000     -70.70600000
C      -48.55880000     -33.34400000     -70.18060000
C      -48.70260000     -34.38860000     -71.07330000
H      -48.46240000     -35.04500000     -73.03640000
H      -47.64170000     -30.92620000     -72.41810000
H      -48.59960000     -33.56080000     -69.11470000
H      -48.85050000     -35.38640000     -70.74440000
C      -48.19200000     -30.89560000     -69.75420000
H      -48.40010000     -31.24090000     -68.72470000
H      -49.09130000     -30.24970000     -69.92450000
C      -47.76840000     -32.64520000     -74.34480000
H      -48.13180000     -33.42980000     -75.01730000
H      -48.19140000     -31.68280000     -74.72590000
S      -46.52270000     -30.02350000     -69.82890000
S      -45.96290000     -32.39120000     -74.62850000
C      -45.50230000     -31.44500000     -69.26220000
H      -44.71640000     -31.04320000     -68.58650000
H      -46.15380000     -32.16100000     -68.75350000
C      -45.24630000     -33.96180000     -74.04940000
H      -45.09220000     -34.68980000     -74.84440000
H      -45.88220000     -34.37430000     -73.27540000
C      -43.84700000     -33.63230000     -73.45930000
H      -43.20800000     -33.69050000     -74.38100000
H      -43.74600000     -32.60800000     -73.14550000
C      -44.74810000     -32.16150000     -70.38800000
H      -44.12880000     -31.46840000     -70.91790000
H      -45.47830000     -32.39570000     -71.20560000
C      -43.94800000     -33.35020000     -69.96110000
C      -43.70310000     -33.65620000     -68.63400000
C      -43.35950000     -34.29740000     -70.90370000
H      -44.13160000     -33.18510000     -67.76510000
C      -42.65110000     -35.32550000     -70.18830000
C      -43.30560000     -34.45080000     -72.32580000
C      -42.52080000     -35.56150000     -72.69480000
S      -42.73520000     -35.12760000     -68.47120000
S      -41.96810000     -36.52500000     -71.32170000
H      -42.20990000     -35.84860000     -73.66980000
