40
Properties=species:S:1:pos:R:3 #=T CELL(abcABC):=T 1.889726e+02=T 90.00000=T Traj:=T positionsangstrom=T Step:=T 0=T Bead:=T pbc="F F F"
C      -46.01210000     -30.15850000     -72.60960000
C      -46.06120000     -29.99700000     -71.24230000
C      -47.00380000     -30.73780000     -70.45900000
C      -47.89480000     -31.55300000     -71.14800000
C      -47.95280000     -31.61120000     -72.57900000
C      -46.94730000     -30.89030000     -73.28780000
H      -45.20200000     -29.68560000     -73.23130000
H      -46.97130000     -30.74510000     -69.36380000
H      -48.74940000     -32.11420000     -73.04350000
H      -46.96800000     -31.05700000     -74.36190000
C      -48.82910000     -32.35040000     -70.22580000
H      -49.85010000     -32.00580000     -70.42750000
H      -48.64510000     -31.96450000     -69.28160000
C      -44.85240000     -29.29120000     -70.64380000
H      -44.25790000     -28.91200000     -71.50240000
H      -45.17750000     -28.59290000     -69.86460000
S      -48.87400000     -34.17220000     -70.34030000
S      -43.87430000     -30.49610000     -69.67970000
C      -47.33160000     -34.57070000     -69.39140000
H      -47.37410000     -34.00890000     -68.46750000
H      -47.49660000     -35.56280000     -69.05320000
C      -43.33390000     -31.72260000     -70.95070000
H      -42.67990000     -31.16360000     -71.72880000
H      -44.21420000     -31.90620000     -71.60910000
C      -42.75070000     -32.99300000     -70.40080000
H      -41.63280000     -32.86530000     -70.11700000
H      -43.29580000     -33.36770000     -69.52530000
C      -45.91350000     -34.22350000     -69.99620000
H      -45.27610000     -34.14150000     -69.07700000
H      -45.93110000     -33.18970000     -70.40920000
C      -45.40650000     -35.06270000     -71.06960000
C      -46.07240000     -36.07200000     -71.64980000
C      -44.01270000     -34.94890000     -71.51760000
H      -47.12500000     -36.30640000     -71.55610000
C      -43.73150000     -36.09720000     -72.34460000
C      -42.84810000     -34.14560000     -71.33580000
C      -41.72980000     -34.60550000     -72.02410000
S      -45.04200000     -37.05700000     -72.71240000
S      -42.06600000     -36.08690000     -72.92550000
H      -40.73820000     -34.18450000     -72.08930000
