40
Properties=species:S:1:pos:R:3 #=T CELL(abcABC):=T 1.889726e+02=T 90.00000=T Traj:=T positionsangstrom=T Step:=T 0=T Bead:=T pbc="F F F"
C      -46.55910000     -29.37070000     -72.64670000
C      -45.98360000     -29.98100000     -71.48210000
C      -46.74400000     -30.87680000     -70.69160000
C      -48.01690000     -31.31750000     -71.04840000
C      -48.51360000     -30.80090000     -72.27620000
C      -47.85860000     -29.79730000     -72.99550000
H      -45.94370000     -28.78730000     -73.39520000
H      -46.35100000     -31.24470000     -69.79840000
H      -49.59730000     -31.03250000     -72.51990000
H      -48.37300000     -29.32160000     -73.84580000
C      -48.75970000     -32.34780000     -70.21460000
H      -49.77510000     -32.03430000     -70.27570000
H      -48.45990000     -32.18570000     -69.16420000
C      -44.69360000     -29.46500000     -70.93610000
H      -44.06720000     -28.87950000     -71.64290000
H      -45.06540000     -28.79880000     -70.18490000
S      -48.52300000     -34.07120000     -70.70750000
S      -43.50330000     -30.61870000     -70.00740000
C      -47.40690000     -34.70570000     -69.37160000
H      -47.73350000     -34.22690000     -68.44240000
H      -47.46170000     -35.81870000     -69.21650000
C      -43.28050000     -32.07230000     -71.08720000
H      -42.64770000     -31.80210000     -71.94210000
H      -44.22370000     -32.41550000     -71.52260000
C      -42.62350000     -33.18200000     -70.21730000
H      -41.61290000     -32.79220000     -69.98640000
H      -43.13500000     -33.30020000     -69.24920000
C      -45.98890000     -34.34500000     -69.76550000
H      -45.42060000     -34.43260000     -68.79870000
H      -45.91310000     -33.27150000     -70.04020000
C      -45.34010000     -35.33290000     -70.79550000
C      -46.09700000     -36.19070000     -71.49780000
C      -44.01200000     -35.15550000     -71.32680000
H      -47.04170000     -36.64930000     -71.22660000
C      -43.76660000     -36.15320000     -72.32920000
C      -42.68290000     -34.42560000     -71.04270000
C      -41.64600000     -34.88600000     -71.83310000
S      -45.18740000     -37.10890000     -72.66110000
S      -42.10200000     -36.25700000     -72.82830000
H      -40.59950000     -34.48250000     -71.77990000
