40
Properties=species:S:1:pos:R:3 #=T CELL(abcABC):=T 1.889726e+02=T 90.00000=T Traj:=T positionsangstrom=T Step:=T 0=T Bead:=T pbc="F F F"
C      -46.49700000     -28.98340000     -72.16430000
C      -45.90210000     -29.75340000     -71.16440000
C      -46.62440000     -30.69570000     -70.44230000
C      -47.94340000     -30.94840000     -70.77090000
C      -48.49300000     -30.31230000     -71.88650000
C      -47.77260000     -29.31290000     -72.51870000
H      -45.87100000     -28.18710000     -72.55620000
H      -46.00810000     -31.20570000     -69.73230000
H      -49.44460000     -30.72000000     -72.34380000
H      -48.35040000     -28.83430000     -73.38440000
C      -48.64040000     -32.12910000     -70.09230000
H      -49.68370000     -32.05000000     -70.27390000
H      -48.39170000     -32.18090000     -69.06440000
C      -44.45340000     -29.39780000     -70.90900000
H      -43.89880000     -29.06390000     -71.79100000
H      -44.40990000     -28.46610000     -70.31210000
S      -48.33110000     -33.89120000     -70.65230000
S      -43.43620000     -30.66730000     -70.05710000
C      -47.11000000     -34.46930000     -69.36420000
H      -47.25470000     -33.84360000     -68.50650000
H      -47.31830000     -35.55590000     -69.15550000
C      -43.38960000     -32.08440000     -71.32200000
H      -42.88180000     -31.67240000     -72.22150000
H      -44.45120000     -32.32720000     -71.49740000
C      -42.65880000     -33.32350000     -70.77020000
H      -41.61220000     -33.09180000     -70.69230000
H      -43.11800000     -33.50010000     -69.84560000
C      -45.69730000     -34.38840000     -69.83760000
H      -45.14350000     -34.61130000     -68.85780000
H      -45.37980000     -33.31370000     -69.99630000
C      -45.35180000     -35.37920000     -70.86060000
C      -46.18660000     -36.41730000     -71.14750000
C      -44.05620000     -35.36730000     -71.60830000
H      -47.16590000     -36.74520000     -70.78130000
C      -43.97010000     -36.43070000     -72.41710000
C      -42.83580000     -34.54850000     -71.59770000
C      -41.87430000     -35.10810000     -72.43150000
S      -45.37100000     -37.47200000     -72.34000000
S      -42.43630000     -36.57780000     -73.22830000
H      -40.96360000     -34.68520000     -72.69480000
