40
Properties=species:S:1:pos:R:3 #=T CELL(abcABC):=T 1.889726e+02=T 90.00000=T Traj:=T positionsangstrom=T Step:=T 0=T Bead:=T pbc="F F F"
C      -49.11450000     -34.42470000     -70.11430000
C      -48.75580000     -33.86280000     -71.36380000
C      -48.07320000     -32.65200000     -71.42040000
C      -47.79060000     -31.89780000     -70.25040000
C      -48.10790000     -32.37570000     -69.01100000
C      -48.76750000     -33.66210000     -68.97320000
H      -49.82790000     -35.25490000     -69.96570000
H      -47.87760000     -32.18660000     -72.35830000
H      -47.94420000     -31.80550000     -68.10980000
H      -48.89410000     -33.99710000     -67.94020000
C      -47.20630000     -30.52890000     -70.48890000
H      -48.05570000     -29.77630000     -70.42430000
H      -46.82930000     -30.57920000     -71.54080000
C      -49.22140000     -34.58530000     -72.62210000
H      -50.04670000     -35.20130000     -72.39120000
H      -49.51700000     -33.84290000     -73.37030000
S      -45.99330000     -29.80800000     -69.34490000
S      -47.91310000     -35.74230000     -73.32230000
C      -44.55760000     -30.95230000     -69.47220000
H      -43.60400000     -30.35310000     -69.23170000
H      -44.52540000     -31.75810000     -68.75440000
C      -46.29900000     -35.26900000     -72.45910000
H      -45.62450000     -36.10760000     -72.60080000
H      -46.53600000     -35.26730000     -71.39940000
C      -45.49280000     -34.11790000     -73.09720000
H      -45.75300000     -34.09830000     -74.20300000
H      -45.70240000     -33.15330000     -72.69460000
C      -44.49510000     -31.68440000     -70.79100000
H      -44.41570000     -31.02100000     -71.64170000
H      -45.42360000     -32.21160000     -70.90150000
C      -43.39340000     -32.65510000     -70.87960000
C      -42.27340000     -32.54360000     -70.04460000
C      -43.32180000     -33.75440000     -71.76080000
H      -42.15990000     -31.83420000     -69.31520000
C      -42.01630000     -34.22710000     -71.75310000
C      -44.06090000     -34.27160000     -72.87670000
C      -43.28620000     -35.15050000     -73.61170000
S      -40.97020000     -33.62940000     -70.48550000
S      -41.68430000     -35.39950000     -73.00660000
H      -43.72880000     -35.80780000     -74.38760000
