40
Properties=species:S:1:pos:R:3 #=T CELL(abcABC):=T 1.889726e+02=T 90.00000=T Traj:=T positionsangstrom=T Step:=T 0=T Bead:=T pbc="F F F"
C      -48.80010000     -34.47970000     -70.54670000
C      -48.75090000     -33.67790000     -71.70170000
C      -48.41490000     -32.29840000     -71.50780000
C      -48.19270000     -31.73640000     -70.26250000
C      -48.24770000     -32.56190000     -69.12670000
C      -48.60470000     -33.90400000     -69.29000000
H      -49.11340000     -35.54740000     -70.56620000
H      -48.26240000     -31.61320000     -72.33840000
H      -48.14880000     -31.99700000     -68.15090000
H      -48.59840000     -34.53940000     -68.47010000
C      -47.75720000     -30.32190000     -70.03750000
H      -48.62770000     -29.70010000     -69.62000000
H      -47.49040000     -29.90280000     -71.01870000
C      -48.87170000     -34.33310000     -73.05240000
H      -49.89660000     -34.75640000     -73.11730000
H      -48.70140000     -33.53100000     -73.82580000
S      -46.19500000     -29.98400000     -69.09330000
S      -47.70470000     -35.82080000     -73.28060000
C      -45.17230000     -31.51270000     -69.35880000
H      -44.22490000     -31.26790000     -68.86650000
H      -45.50230000     -32.29890000     -68.62880000
C      -46.07850000     -35.18650000     -72.46240000
H      -45.48070000     -36.10370000     -72.25440000
H      -46.42990000     -34.81510000     -71.53690000
C      -45.33020000     -34.20050000     -73.29750000
H      -45.47280000     -34.49420000     -74.29910000
H      -45.62620000     -33.14270000     -73.23360000
C      -44.93170000     -32.03600000     -70.81690000
H      -45.06580000     -31.26350000     -71.57850000
H      -45.62720000     -32.75770000     -71.03460000
C      -43.55190000     -32.74010000     -70.79910000
C      -42.48330000     -32.40060000     -69.91970000
C      -43.20040000     -33.76020000     -71.80890000
H      -42.35020000     -31.80760000     -68.95460000
C      -41.83970000     -34.18240000     -71.60960000
C      -43.88220000     -34.45100000     -72.93080000
C      -43.00590000     -35.29680000     -73.58260000
S      -40.95620000     -33.29670000     -70.38390000
S      -41.32890000     -35.26590000     -72.95920000
H      -43.29550000     -35.91070000     -74.43860000
