40
Properties=species:S:1:pos:R:3 #=T CELL(abcABC):=T 1.889726e+02=T 90.00000=T Traj:=T positionsangstrom=T Step:=T 0=T Bead:=T pbc="F F F"
C      -46.95810000     -30.85350000     -73.62140000
C      -47.78280000     -31.64600000     -72.85380000
C      -47.84340000     -33.03410000     -73.12530000
C      -47.00920000     -33.67240000     -74.07430000
C      -46.18210000     -32.85280000     -74.84690000
C      -46.10690000     -31.46730000     -74.56250000
H      -46.84950000     -29.78610000     -73.50870000
H      -48.50180000     -33.58900000     -72.41400000
H      -45.47150000     -33.19440000     -75.68620000
H      -45.50940000     -30.93600000     -75.28600000
C      -47.01230000     -35.15010000     -74.30550000
H      -46.09890000     -35.47000000     -74.87830000
H      -47.80240000     -35.47600000     -74.98420000
C      -48.66680000     -31.12340000     -71.77250000
H      -49.37990000     -30.38890000     -72.16180000
H      -49.28500000     -31.86140000     -71.28790000
S      -47.26900000     -36.41870000     -73.00890000
S      -47.66830000     -30.13600000     -70.51400000
C      -45.58480000     -36.40650000     -72.14710000
H      -45.80000000     -36.89210000     -71.17640000
H      -44.92850000     -37.02920000     -72.70590000
C      -46.34220000     -31.06280000     -69.60260000
H      -46.81460000     -31.69790000     -68.82250000
H      -45.75620000     -30.31130000     -68.99840000
C      -45.31700000     -31.83390000     -70.51630000
H      -45.85720000     -32.59630000     -71.03430000
H      -44.83500000     -31.12600000     -71.22140000
C      -44.99000000     -34.97240000     -71.99630000
H      -45.83190000     -34.23250000     -71.75130000
H      -44.53760000     -34.55740000     -72.93410000
C      -43.80900000     -34.90060000     -71.03810000
C      -42.84420000     -35.88480000     -70.88400000
C      -43.65820000     -33.85710000     -70.03360000
H      -42.55770000     -36.63770000     -71.59860000
C      -42.62180000     -34.10610000     -69.18950000
C      -44.26080000     -32.54720000     -69.70390000
C      -43.72830000     -32.01930000     -68.55820000
S      -41.61700000     -35.49150000     -69.66100000
S      -42.28190000     -32.90880000     -67.99650000
H      -43.98950000     -31.11020000     -68.06840000
