40
Properties=species:S:1:pos:R:3 #=T CELL(abcABC):=T 1.889726e+02=T 90.00000=T Traj:=T positionsangstrom=T Step:=T 0=T Bead:=T pbc="F F F"
C      -47.22420000     -30.94810000     -73.78490000
C      -47.92150000     -31.77700000     -72.93210000
C      -48.03470000     -33.14720000     -73.27060000
C      -47.30340000     -33.65270000     -74.28540000
C      -46.47860000     -32.87990000     -75.01950000
C      -46.40110000     -31.47710000     -74.78320000
H      -47.17790000     -29.85510000     -73.57970000
H      -48.66170000     -33.87960000     -72.68780000
H      -45.82810000     -33.29270000     -75.82510000
H      -45.70330000     -30.85700000     -75.29100000
C      -47.43710000     -35.21170000     -74.56820000
H      -47.18070000     -35.46310000     -75.65910000
H      -48.46840000     -35.50300000     -74.39840000
C      -48.66790000     -31.29760000     -71.74140000
H      -49.36100000     -30.50360000     -72.00280000
H      -49.26090000     -32.11860000     -71.29680000
S      -46.37170000     -36.32220000     -73.59770000
S      -47.67850000     -30.57750000     -70.39600000
C      -46.01990000     -35.61090000     -71.89830000
H      -46.81670000     -34.97550000     -71.56270000
H      -46.09170000     -36.45940000     -71.22100000
C      -46.46080000     -31.92490000     -70.01720000
H      -46.89160000     -32.85710000     -70.30220000
H      -46.33100000     -31.99330000     -68.96000000
C      -45.05120000     -31.70740000     -70.62260000
H      -45.10970000     -32.02750000     -71.68120000
H      -44.92790000     -30.63890000     -70.75950000
C      -44.62530000     -35.00830000     -71.89530000
H      -44.71900000     -34.03350000     -72.38550000
H      -43.93150000     -35.54180000     -72.57740000
C      -43.91120000     -34.89710000     -70.61300000
C      -43.32650000     -35.98500000     -70.04650000
C      -43.47910000     -33.68860000     -69.93750000
H      -43.44310000     -36.91510000     -70.59420000
C      -42.60530000     -33.94270000     -68.85660000
C      -43.90540000     -32.32230000     -69.95080000
C      -43.15090000     -31.60460000     -69.11910000
S      -42.19310000     -35.67720000     -68.77810000
S      -42.00940000     -32.47480000     -68.17730000
H      -43.13630000     -30.56410000     -69.00560000
