40
Properties=species:S:1:pos:R:3 #=T CELL(abcABC):=T 1.889726e+02=T 90.00000=T Traj:=T positionsangstrom=T Step:=T 0=T Bead:=T pbc="F F F"
C      -47.23510000     -31.01490000     -73.80290000
C      -48.09240000     -31.75070000     -73.01350000
C      -48.21320000     -33.15300000     -73.24040000
C      -47.48880000     -33.75440000     -74.23590000
C      -46.57390000     -33.00360000     -74.99450000
C      -46.34210000     -31.65950000     -74.80450000
H      -47.01080000     -29.96700000     -73.62910000
H      -48.80160000     -33.76300000     -72.59620000
H      -46.04230000     -33.59090000     -75.83910000
H      -45.63970000     -31.13390000     -75.42680000
C      -47.65320000     -35.26860000     -74.35410000
H      -47.91570000     -35.50650000     -75.37060000
H      -48.46080000     -35.56800000     -73.72200000
C      -48.73640000     -31.07960000     -71.91160000
H      -49.15140000     -30.13480000     -72.29510000
H      -49.63340000     -31.67720000     -71.61600000
S      -46.14290000     -36.25920000     -73.88290000
S      -47.65310000     -30.72420000     -70.42970000
C      -45.76070000     -35.67690000     -72.13400000
H      -46.56090000     -34.93570000     -71.82280000
H      -45.78930000     -36.58250000     -71.52420000
C      -46.33000000     -32.08930000     -70.31730000
H      -46.59860000     -32.88360000     -71.01900000
H      -46.44320000     -32.37020000     -69.22080000
C      -44.88650000     -31.52870000     -70.66520000
H      -44.62950000     -31.53230000     -71.75740000
H      -44.81490000     -30.46370000     -70.38530000
C      -44.45450000     -34.85330000     -72.00000000
H      -44.64930000     -33.77110000     -72.26860000
H      -43.78140000     -35.22250000     -72.73740000
C      -43.85340000     -34.79530000     -70.57640000
C      -43.35040000     -35.95230000     -70.04630000
C      -43.49190000     -33.62580000     -69.78980000
H      -43.68840000     -36.97110000     -70.34860000
C      -42.65330000     -33.93730000     -68.74390000
C      -43.81770000     -32.25160000     -69.87940000
C      -43.15850000     -31.47570000     -68.95770000
S      -42.41110000     -35.66560000     -68.56240000
S      -42.01790000     -32.51150000     -68.00900000
H      -43.26400000     -30.47850000     -68.79440000
