40
Properties=species:S:1:pos:R:3 #=T CELL(abcABC):=T 1.889726e+02=T 90.00000=T Traj:=T positionsangstrom=T Step:=T 0=T Bead:=T pbc="F F F"
C      -47.03050000     -30.97770000     -73.57200000
C      -47.78230000     -31.89680000     -72.79500000
C      -47.85770000     -33.22830000     -73.12630000
C      -47.09880000     -33.71020000     -74.20840000
C      -46.38200000     -32.77000000     -74.95370000
C      -46.39920000     -31.42960000     -74.69410000
H      -47.13690000     -29.91530000     -73.40140000
H      -48.49860000     -33.81350000     -72.51870000
H      -45.90120000     -33.21670000     -75.77390000
H      -45.97320000     -30.67150000     -75.33730000
C      -47.12930000     -35.12080000     -74.70840000
H      -46.41400000     -35.27400000     -75.48130000
H      -48.11470000     -35.38080000     -75.08910000
C      -48.61180000     -31.40670000     -71.68160000
H      -49.38830000     -30.69740000     -72.02840000
H      -49.09610000     -32.27100000     -71.24090000
S      -46.70710000     -36.51120000     -73.46370000
S      -47.68430000     -30.41390000     -70.43220000
C      -46.20950000     -35.55800000     -71.94820000
H      -46.90000000     -34.74520000     -71.69900000
H      -46.24730000     -36.31020000     -71.10130000
C      -46.31570000     -31.57700000     -69.83650000
H      -46.72900000     -32.58930000     -69.57780000
H      -45.97910000     -31.12800000     -68.89210000
C      -45.17410000     -31.76970000     -70.76000000
H      -45.35040000     -32.45620000     -71.53650000
H      -44.79970000     -30.84160000     -71.11530000
C      -44.77890000     -34.97930000     -72.00570000
H      -44.76350000     -33.96090000     -72.39910000
H      -44.30880000     -35.60540000     -72.81780000
C      -43.96420000     -34.98250000     -70.62540000
C      -43.21610000     -36.03600000     -70.19250000
C      -43.59660000     -33.75580000     -69.92270000
H      -43.12010000     -37.00260000     -70.60900000
C      -42.54050000     -33.95860000     -69.00160000
C      -43.99090000     -32.39380000     -69.94840000
C      -43.30060000     -31.60960000     -69.11510000
S      -42.00980000     -35.58950000     -68.96880000
S      -42.11060000     -32.53880000     -68.19220000
H      -43.53100000     -30.62910000     -68.68150000
