40
Properties=species:S:1:pos:R:3 #=T CELL(abcABC):=T 1.889726e+02=T 90.00000=T Traj:=T positionsangstrom=T Step:=T 0=T Bead:=T pbc="F F F"
C      -46.78470000     -31.27250000     -73.71820000
C      -47.66780000     -31.89550000     -72.76200000
C      -47.85390000     -33.26120000     -72.89590000
C      -47.27950000     -34.04050000     -73.90650000
C      -46.58910000     -33.36770000     -74.88750000
C      -46.18360000     -32.00870000     -74.71270000
H      -46.48370000     -30.21040000     -73.70140000
H      -48.35580000     -33.77350000     -72.07370000
H      -46.12020000     -33.90310000     -75.71080000
H      -45.68780000     -31.51840000     -75.46900000
C      -47.74400000     -35.47780000     -74.02230000
H      -47.76050000     -35.66370000     -75.10600000
H      -48.75600000     -35.69630000     -73.57880000
C      -48.41860000     -31.17170000     -71.67450000
H      -49.30800000     -30.73340000     -72.03800000
H      -48.74690000     -31.81310000     -70.84140000
S      -46.53320000     -36.73050000     -73.19420000
S      -47.45180000     -29.80410000     -71.03660000
C      -44.99570000     -35.88480000     -72.96600000
H      -44.21050000     -36.63240000     -72.53500000
H      -44.54950000     -35.52000000     -73.85290000
C      -46.19100000     -30.64980000     -69.88100000
H      -46.66730000     -30.53310000     -68.89590000
H      -45.23490000     -30.11130000     -69.81260000
C      -45.75270000     -32.08560000     -70.27240000
H      -46.50910000     -32.76720000     -70.04800000
H      -45.56800000     -32.05030000     -71.38390000
C      -44.95650000     -34.68210000     -71.94280000
H      -45.80060000     -34.74820000     -71.25070000
H      -45.12060000     -33.80230000     -72.49520000
C      -43.74130000     -34.67060000     -70.99570000
C      -42.77260000     -35.67580000     -70.81380000
C      -43.64990000     -33.64640000     -69.97560000
H      -42.55100000     -36.40590000     -71.56440000
C      -42.58970000     -33.85160000     -69.09170000
C      -44.49190000     -32.50730000     -69.53740000
C      -44.10040000     -32.01730000     -68.32740000
S      -41.75550000     -35.33910000     -69.42820000
S      -42.64170000     -32.78710000     -67.70070000
H      -44.36530000     -31.11670000     -67.79820000
