40
Properties=species:S:1:pos:R:3 #=T CELL(abcABC):=T 1.889726e+02=T 90.00000=T Traj:=T positionsangstrom=T Step:=T 0=T Bead:=T pbc="F F F"
C      -46.90230000     -31.32130000     -73.76300000
C      -47.80370000     -32.01970000     -72.91950000
C      -47.99040000     -33.38230000     -73.09290000
C      -47.29900000     -34.04120000     -74.12350000
C      -46.52060000     -33.32160000     -75.03300000
C      -46.34270000     -31.96130000     -74.91670000
H      -46.80320000     -30.26220000     -73.49160000
H      -48.62830000     -33.95570000     -72.40380000
H      -46.03760000     -33.87270000     -75.79300000
H      -45.66490000     -31.40890000     -75.58970000
C      -47.55640000     -35.54520000     -74.32590000
H      -47.42140000     -35.88120000     -75.38720000
H      -48.50580000     -35.81030000     -73.98520000
C      -48.55620000     -31.31630000     -71.75610000
H      -49.48250000     -30.84020000     -72.16600000
H      -48.79900000     -32.00330000     -71.02840000
S      -46.52940000     -36.63890000     -73.18870000
S      -47.55510000     -29.97620000     -71.00360000
C      -44.85330000     -35.94770000     -72.96460000
H      -44.37350000     -36.68240000     -72.47520000
H      -44.36330000     -36.00200000     -73.97700000
C      -46.57360000     -31.00460000     -69.80400000
H      -47.17450000     -31.78920000     -69.38880000
H      -46.26230000     -30.28360000     -69.04410000
C      -45.39490000     -31.82260000     -70.38910000
H      -45.96440000     -32.62860000     -70.93100000
H      -44.88350000     -31.32990000     -71.14890000
C      -44.78840000     -34.69200000     -71.98540000
H      -45.67020000     -34.83640000     -71.38190000
H      -44.83180000     -33.74480000     -72.58440000
C      -43.68440000     -34.55940000     -70.88770000
C      -42.72150000     -35.54570000     -70.74770000
C      -43.68830000     -33.63720000     -69.77390000
H      -42.59060000     -36.36830000     -71.44560000
C      -42.66000000     -33.88610000     -68.88520000
C      -44.34130000     -32.38850000     -69.45870000
C      -43.91110000     -31.76250000     -68.31910000
S      -41.73950000     -35.33100000     -69.28760000
S      -42.62430000     -32.67270000     -67.53020000
H      -44.32300000     -30.77710000     -67.96710000
