40
Properties=species:S:1:pos:R:3 #=T CELL(abcABC):=T 1.889726e+02=T 90.00000=T Traj:=T positionsangstrom=T Step:=T 0=T Bead:=T pbc="F F F"
C      -47.00010000     -31.32480000     -73.86710000
C      -47.80310000     -31.90260000     -72.91600000
C      -47.96690000     -33.35890000     -73.05240000
C      -47.31260000     -34.10820000     -74.00250000
C      -46.41310000     -33.47210000     -74.84940000
C      -46.37930000     -32.05850000     -74.91920000
H      -46.91300000     -30.24590000     -73.83000000
H      -48.74980000     -33.86900000     -72.35760000
H      -45.86330000     -34.00290000     -75.64350000
H      -45.72820000     -31.54670000     -75.53470000
C      -47.51560000     -35.57510000     -74.12290000
H      -47.40060000     -35.76680000     -75.19040000
H      -48.59140000     -35.84630000     -73.93440000
C      -48.51050000     -31.12250000     -71.84090000
H      -49.24300000     -30.42040000     -72.32490000
H      -49.02560000     -31.80660000     -71.10020000
S      -46.46520000     -36.70450000     -73.15090000
S      -47.46000000     -29.85550000     -70.84460000
C      -44.83230000     -35.85720000     -72.90260000
H      -44.14860000     -36.70330000     -72.63920000
H      -44.53270000     -35.40660000     -73.86190000
C      -46.27710000     -30.73920000     -69.75740000
H      -46.76120000     -31.08990000     -68.80180000
H      -45.58210000     -29.95360000     -69.32500000
C      -45.56610000     -31.86580000     -70.41510000
H      -46.22610000     -32.65340000     -70.76270000
H      -45.06000000     -31.48960000     -71.39510000
C      -44.96320000     -34.70120000     -71.91960000
H      -45.93690000     -34.86760000     -71.34430000
H      -45.08370000     -33.73650000     -72.40700000
C      -43.80320000     -34.76130000     -70.93750000
C      -42.72400000     -35.65590000     -70.74350000
C      -43.85260000     -33.79210000     -69.78210000
H      -42.45660000     -36.48030000     -71.42080000
C      -42.75650000     -33.90580000     -69.02100000
C      -44.48860000     -32.46500000     -69.52130000
C      -43.99190000     -31.89490000     -68.40000000
S      -41.68300000     -35.22630000     -69.37660000
S      -42.63640000     -32.73500000     -67.71300000
H      -44.17880000     -30.85160000     -68.02010000
