40
Properties=species:S:1:pos:R:3 #=T CELL(abcABC):=T 1.889726e+02=T 90.00000=T Traj:=T positionsangstrom=T Step:=T 0=T Bead:=T pbc="F F F"
C      -41.99680000     -33.38170000     -73.60390000
C      -42.86500000     -33.24140000     -72.52580000
C      -43.66970000     -32.09160000     -72.31820000
C      -43.82190000     -31.22080000     -73.44010000
C      -42.89670000     -31.34100000     -74.52420000
C      -41.96250000     -32.43120000     -74.61070000
H      -41.32750000     -34.27150000     -73.61440000
H      -44.36560000     -32.07060000     -71.57000000
H      -43.03060000     -30.61730000     -75.30850000
H      -41.25570000     -32.54990000     -75.48980000
C      -44.81490000     -30.02550000     -73.33190000
H      -44.57260000     -29.24830000     -74.18480000
H      -44.68980000     -29.57660000     -72.31510000
C      -42.96340000     -34.30090000     -71.54070000
H      -41.97350000     -34.50690000     -71.16520000
H      -43.63800000     -34.10510000     -70.62570000
S      -46.63350000     -30.51030000     -73.53510000
S      -43.64510000     -35.81530000     -72.38910000
C      -47.21030000     -30.88540000     -71.80900000
H      -46.43300000     -30.58450000     -71.16640000
H      -48.11570000     -30.36430000     -71.59910000
C      -45.30480000     -35.12640000     -72.91220000
H      -45.38900000     -35.38170000     -73.92870000
H      -45.27650000     -34.01880000     -72.83380000
C      -46.48840000     -35.62780000     -71.99980000
H      -47.35530000     -35.25600000     -72.51660000
H      -46.61460000     -36.68240000     -72.12650000
C      -47.30690000     -32.39140000     -71.60050000
H      -46.56190000     -32.93510000     -72.25080000
H      -48.29590000     -32.84250000     -71.81970000
C      -47.01230000     -32.76160000     -70.14770000
C      -47.02700000     -31.97260000     -69.00670000
C      -46.63890000     -34.11830000     -69.82530000
H      -47.39800000     -30.99430000     -68.91660000
C      -46.59660000     -34.35440000     -68.42590000
C      -46.39500000     -35.36050000     -70.54920000
C      -46.02750000     -36.43500000     -69.71190000
S      -46.69790000     -32.86990000     -67.53030000
S      -46.05980000     -35.99010000     -67.98970000
H      -45.70710000     -37.39920000     -69.99240000
