40
Properties=species:S:1:pos:R:3 #=T CELL(abcABC):=T 1.889726e+02=T 90.00000=T Traj:=T positionsangstrom=T Step:=T 0=T Bead:=T pbc="F F F"
C      -44.59850000     -32.73920000     -69.11250000
C      -45.03940000     -34.05590000     -68.99220000
C      -46.34780000     -34.39280000     -69.24720000
C      -47.30830000     -33.41150000     -69.52640000
C      -46.87580000     -32.08270000     -69.59550000
C      -45.54480000     -31.74200000     -69.39780000
H      -43.48870000     -32.58660000     -68.89130000
H      -46.71040000     -35.38840000     -69.15050000
H      -47.61070000     -31.29670000     -69.93820000
H      -45.30850000     -30.62820000     -69.49410000
C      -48.70880000     -33.81680000     -69.87390000
H      -49.41440000     -33.34960000     -69.18680000
H      -48.75680000     -34.90100000     -69.79870000
C      -44.02010000     -35.10670000     -68.67670000
H      -43.67030000     -35.01200000     -67.63990000
H      -44.42330000     -36.12770000     -68.57040000
S      -49.28500000     -33.17440000     -71.55870000
S      -42.49960000     -35.18520000     -69.60840000
C      -48.52820000     -34.34260000     -72.77520000
H      -48.93550000     -35.36250000     -72.64960000
H      -48.68760000     -33.91870000     -73.85330000
C      -43.12990000     -36.22670000     -70.97890000
H      -43.53980000     -37.17710000     -70.62530000
H      -42.29690000     -36.45430000     -71.63310000
C      -44.18110000     -35.59320000     -71.87350000
H      -44.38280000     -36.31280000     -72.65690000
H      -45.16980000     -35.56610000     -71.37730000
C      -47.01190000     -34.40810000     -72.55480000
H      -46.48960000     -35.30360000     -73.10160000
H      -46.95300000     -34.69790000     -71.57100000
C      -46.22340000     -33.12470000     -72.77520000
C      -46.63720000     -31.85320000     -72.99090000
C      -44.78250000     -33.20120000     -72.73010000
H      -47.70390000     -31.72720000     -73.34300000
C      -44.18510000     -31.99170000     -72.97630000
C      -43.76040000     -34.18780000     -72.42170000
C      -42.46290000     -33.66950000     -72.30820000
S      -45.32670000     -30.67400000     -73.21270000
S      -42.38590000     -31.98850000     -72.77420000
H      -41.58160000     -34.24590000     -72.11260000
