40
Properties=species:S:1:pos:R:3 #=T CELL(abcABC):=T 1.889726e+02=T 90.00000=T Traj:=T positionsangstrom=T Step:=T 0=T Bead:=T pbc="F F F"
C      -44.73250000     -32.84950000     -68.90080000
C      -45.25260000     -34.22500000     -68.92490000
C      -46.52120000     -34.39750000     -69.41570000
C      -47.27000000     -33.34550000     -69.92400000
C      -46.82890000     -32.01440000     -69.85150000
C      -45.52210000     -31.81370000     -69.42900000
H      -43.67020000     -32.61170000     -68.76300000
H      -46.95140000     -35.36420000     -69.40640000
H      -47.42400000     -31.17860000     -70.22090000
H      -45.22820000     -30.78720000     -69.48200000
C      -48.73790000     -33.65200000     -70.28430000
H      -49.51940000     -33.25450000     -69.57650000
H      -48.88120000     -34.68190000     -70.32920000
C      -44.48050000     -35.45200000     -68.40680000
H      -44.22200000     -35.26200000     -67.36340000
H      -45.11470000     -36.32480000     -68.62650000
S      -49.26350000     -32.99410000     -71.90810000
S      -42.78140000     -35.43690000     -69.15430000
C      -48.44430000     -34.18750000     -73.15820000
H      -48.94050000     -35.21710000     -73.01120000
H      -48.71250000     -33.93030000     -74.18920000
C      -42.92440000     -36.21070000     -70.79560000
H      -43.30400000     -37.26890000     -70.68490000
H      -41.90370000     -36.32600000     -71.17100000
C      -43.91580000     -35.56700000     -71.73230000
H      -44.05720000     -36.17000000     -72.63540000
H      -44.86760000     -35.81580000     -71.25880000
C      -46.95790000     -34.36860000     -72.87730000
H      -46.53790000     -35.05720000     -73.61490000
H      -46.88610000     -34.90370000     -72.01730000
C      -46.03430000     -33.19840000     -73.00760000
C      -46.39570000     -31.99390000     -73.52320000
C      -44.69930000     -33.14550000     -72.50350000
H      -47.47140000     -31.75670000     -73.86070000
C      -44.09420000     -31.84440000     -72.70850000
C      -43.75490000     -34.08840000     -72.04530000
C      -42.50140000     -33.54870000     -71.98980000
S      -45.14950000     -30.73210000     -73.42350000
S      -42.40340000     -31.88010000     -72.34610000
H      -41.54660000     -33.99400000     -71.63490000
