40
Properties=species:S:1:pos:R:3 #=T CELL(abcABC):=T 1.889726e+02=T 90.00000=T Traj:=T positionsangstrom=T Step:=T 0=T Bead:=T pbc="F F F"
C      -44.84200000     -32.89160000     -68.94370000
C      -45.33170000     -34.18410000     -68.90400000
C      -46.62680000     -34.45600000     -69.20960000
C      -47.45880000     -33.40390000     -69.60850000
C      -47.02260000     -32.09480000     -69.64170000
C      -45.66900000     -31.81820000     -69.28500000
H      -43.81940000     -32.68080000     -68.82660000
H      -46.90870000     -35.50470000     -69.09540000
H      -47.68990000     -31.36110000     -70.02610000
H      -45.29410000     -30.78010000     -69.46820000
C      -48.83080000     -33.78730000     -70.17170000
H      -49.56670000     -33.46960000     -69.47420000
H      -49.06480000     -34.89120000     -70.35630000
C      -44.40570000     -35.36200000     -68.56770000
H      -44.24720000     -35.42290000     -67.49480000
H      -44.77320000     -36.29270000     -68.88380000
S      -49.12500000     -33.05040000     -71.79620000
S      -42.75230000     -35.19130000     -69.38360000
C      -48.40040000     -34.21460000     -72.96240000
H      -48.96530000     -35.15220000     -72.98960000
H      -48.57910000     -33.72080000     -73.92800000
C      -42.94390000     -36.18990000     -70.92990000
H      -43.16150000     -37.24600000     -70.70040000
H      -41.96220000     -36.09550000     -71.46720000
C      -43.97660000     -35.54700000     -71.83690000
H      -43.95430000     -36.14150000     -72.79150000
H      -44.91130000     -35.64930000     -71.27480000
C      -46.84640000     -34.40660000     -72.78610000
H      -46.55480000     -35.10890000     -73.53650000
H      -46.65080000     -34.87260000     -71.73600000
C      -46.07680000     -33.16500000     -72.96790000
C      -46.50760000     -31.96270000     -73.44680000
C      -44.66370000     -33.17620000     -72.61330000
H      -47.37470000     -31.62460000     -73.95750000
C      -44.06850000     -31.94210000     -72.74120000
C      -43.65520000     -34.12130000     -72.12440000
C      -42.38580000     -33.65950000     -72.17670000
S      -45.18870000     -30.69500000     -73.34860000
S      -42.29920000     -31.91890000     -72.51310000
H      -41.48220000     -34.14330000     -71.85400000
