40
Properties=species:S:1:pos:R:3 #=T CELL(abcABC):=T 1.889726e+02=T 90.00000=T Traj:=T positionsangstrom=T Step:=T 0=T Bead:=T pbc="F F F"
C      -48.76160000     -34.90730000     -70.84810000
C      -48.45300000     -33.91040000     -71.80310000
C      -48.36120000     -32.53090000     -71.43050000
C      -48.40510000     -32.21390000     -70.02110000
C      -48.60960000     -33.23440000     -69.07450000
C      -48.72700000     -34.59020000     -69.49020000
H      -48.90420000     -35.97370000     -71.14020000
H      -48.11050000     -31.75790000     -72.17040000
H      -48.63350000     -33.04170000     -67.96380000
H      -48.91410000     -35.45250000     -68.83450000
C      -48.20530000     -30.76640000     -69.72110000
H      -48.27950000     -30.54960000     -68.67290000
H      -48.84910000     -30.06520000     -70.23200000
C      -48.42520000     -34.26950000     -73.24140000
H      -48.31030000     -35.42220000     -73.31580000
H      -49.36450000     -34.03330000     -73.76460000
S      -46.51580000     -29.98010000     -70.20570000
S      -47.05690000     -33.52990000     -74.18020000
C      -45.36530000     -31.27470000     -69.63110000
H      -44.49660000     -30.82290000     -69.24470000
H      -45.83020000     -31.81870000     -68.81860000
C      -45.56420000     -34.51580000     -73.63450000
H      -45.43420000     -35.35360000     -74.35400000
H      -45.71280000     -34.90480000     -72.58630000
C      -44.34650000     -33.54430000     -73.72980000
H      -44.11850000     -33.35990000     -74.75420000
H      -44.68800000     -32.51220000     -73.57380000
C      -45.07260000     -32.23700000     -70.69950000
H      -44.87230000     -31.80970000     -71.70430000
H      -45.97320000     -32.83870000     -70.81320000
C      -43.85090000     -33.17740000     -70.36970000
C      -43.40410000     -33.47250000     -69.16090000
C      -43.16460000     -33.91360000     -71.41550000
H      -43.88940000     -33.08330000     -68.27960000
C      -42.05330000     -34.56780000     -70.94920000
C      -43.16300000     -33.91680000     -72.92170000
C      -42.08770000     -34.57440000     -73.45350000
S      -41.99910000     -34.59240000     -69.20290000
S      -41.07290000     -35.25370000     -72.23210000
H      -41.96160000     -34.59260000     -74.55480000
