40
Properties=species:S:1:pos:R:3 #=T CELL(abcABC):=T 1.889726e+02=T 90.00000=T Traj:=T positionsangstrom=T Step:=T 0=T Bead:=T pbc="F F F"
C      -48.50080000     -34.82900000     -70.77030000
C      -48.51870000     -33.85240000     -71.81000000
C      -48.59080000     -32.49950000     -71.53310000
C      -48.49630000     -32.15210000     -70.14180000
C      -48.33840000     -33.10520000     -69.11730000
C      -48.43480000     -34.46050000     -69.44920000
H      -48.38360000     -35.87230000     -71.01580000
H      -48.58670000     -31.78490000     -72.36960000
H      -47.91770000     -32.73060000     -68.11790000
H      -48.26180000     -35.20500000     -68.75310000
C      -48.21070000     -30.60970000     -69.83320000
H      -48.57810000     -30.37700000     -68.83330000
H      -48.75370000     -29.94510000     -70.53490000
C      -48.55300000     -34.30710000     -73.21530000
H      -48.56550000     -35.39360000     -73.23430000
H      -49.36870000     -33.90040000     -73.69580000
S      -46.49090000     -29.97750000     -70.26030000
S      -47.20090000     -33.55030000     -74.31770000
C      -45.27690000     -31.24870000     -69.65860000
H      -44.23730000     -30.72660000     -69.69880000
H      -45.45260000     -31.54250000     -68.57400000
C      -45.68920000     -34.34070000     -73.53840000
H      -45.56050000     -35.26940000     -73.99770000
H      -45.84590000     -34.55350000     -72.43460000
C      -44.37890000     -33.51400000     -73.73880000
H      -44.08970000     -33.63220000     -74.78200000
H      -44.48920000     -32.44090000     -73.44490000
C      -45.18930000     -32.48420000     -70.55520000
H      -45.21120000     -32.08630000     -71.58990000
H      -46.06070000     -33.05950000     -70.50020000
C      -43.96950000     -33.42420000     -70.36110000
C      -43.56460000     -33.81800000     -69.15420000
C      -43.11650000     -33.89550000     -71.40850000
H      -44.03020000     -33.37350000     -68.28990000
C      -42.05840000     -34.57340000     -70.92580000
C      -43.19260000     -34.02780000     -72.87670000
C      -42.03800000     -34.63480000     -73.38920000
S      -42.01980000     -34.67160000     -69.17250000
S      -40.93090000     -35.12140000     -72.12980000
H      -41.86190000     -34.71820000     -74.44030000
