40
Properties=species:S:1:pos:R:3 #=T CELL(abcABC):=T 1.889726e+02=T 90.00000=T Traj:=T positionsangstrom=T Step:=T 0=T Bead:=T pbc="F F F"
C      -46.27510000     -35.79410000     -70.54980000
C      -45.30370000     -36.13310000     -71.56730000
C      -45.46710000     -35.54600000     -72.82120000
C      -46.61510000     -34.71960000     -73.17380000
C      -47.45290000     -34.31420000     -72.11000000
C      -47.30410000     -34.88260000     -70.86010000
H      -46.13460000     -36.26830000     -69.57980000
H      -44.68690000     -35.81610000     -73.61500000
H      -48.31140000     -33.66770000     -72.47270000
H      -47.98090000     -34.60650000     -70.06400000
C      -46.66530000     -34.15460000     -74.56870000
H      -47.65380000     -34.20160000     -74.87440000
H      -46.09490000     -34.76650000     -75.29820000
C      -44.03290000     -36.87240000     -71.14790000
H      -44.21330000     -37.60920000     -70.46750000
H      -43.35450000     -37.16430000     -71.93740000
S      -46.08730000     -32.39690000     -74.79570000
S      -42.87930000     -35.85710000     -70.03270000
C      -44.43670000     -32.20950000     -73.97450000
H      -44.06310000     -33.17130000     -73.65060000
H      -43.70930000     -31.93120000     -74.85250000
C      -42.49800000     -34.45870000     -71.16170000
H      -43.18270000     -34.44860000     -72.03500000
H      -41.47230000     -34.47590000     -71.63480000
C      -42.56070000     -33.01990000     -70.54320000
H      -41.74740000     -32.93650000     -69.80220000
H      -42.22860000     -32.33140000     -71.33560000
C      -44.42420000     -31.10370000     -72.96470000
H      -44.78080000     -30.19830000     -73.39500000
H      -43.32800000     -30.91100000     -72.67660000
C      -45.27960000     -31.39800000     -71.75730000
C      -46.58360000     -30.98530000     -71.84810000
C      -44.92300000     -31.88350000     -70.44520000
H      -47.01570000     -30.49020000     -72.73290000
C      -46.01840000     -31.71370000     -69.57080000
C      -43.87810000     -32.61670000     -69.84680000
C      -44.17790000     -32.95260000     -68.52570000
S      -47.49160000     -31.13040000     -70.39280000
S      -45.75910000     -32.45270000     -67.99270000
H      -43.56960000     -33.29320000     -67.68160000
