40
Properties=species:S:1:pos:R:3 #=T CELL(abcABC):=T 1.889726e+02=T 90.00000=T Traj:=T positionsangstrom=T Step:=T 0=T Bead:=T pbc="F F F"
C      -44.84760000     -35.86310000     -71.97830000
C      -43.85760000     -35.19820000     -72.66060000
C      -44.28570000     -34.13550000     -73.50520000
C      -45.60590000     -34.06550000     -73.89340000
C      -46.55900000     -34.83140000     -73.35220000
C      -46.23150000     -35.67320000     -72.29710000
H      -44.54630000     -36.68670000     -71.26440000
H      -43.56360000     -33.61100000     -74.07840000
H      -47.56600000     -34.61280000     -73.68090000
H      -46.96060000     -36.26780000     -71.71870000
C      -45.96700000     -33.00290000     -74.83350000
H      -46.89280000     -33.21270000     -75.38220000
H      -45.28210000     -32.89450000     -75.60920000
C      -42.45940000     -35.41170000     -72.35360000
H      -42.23010000     -36.45210000     -72.54890000
H      -41.94620000     -34.68530000     -73.02590000
S      -46.17390000     -31.28210000     -74.05480000
S      -41.85250000     -34.81780000     -70.66400000
C      -44.89240000     -31.08530000     -72.82860000
H      -44.73070000     -32.13730000     -72.65810000
H      -43.96700000     -30.63040000     -73.08660000
C      -42.40550000     -33.09900000     -70.75200000
H      -43.15030000     -33.09630000     -71.55500000
H      -41.55730000     -32.43250000     -70.88270000
C      -43.18400000     -32.69840000     -69.47250000
H      -42.62790000     -33.22180000     -68.68050000
H      -43.20190000     -31.61130000     -69.34450000
C      -45.33000000     -30.53560000     -71.46640000
H      -45.71500000     -29.54050000     -71.47990000
H      -44.40380000     -30.42280000     -70.96980000
C      -46.24710000     -31.44650000     -70.74280000
C      -47.60970000     -31.29640000     -70.70030000
C      -45.84270000     -32.62380000     -69.96620000
H      -48.18210000     -30.48850000     -71.15380000
C      -46.96540000     -33.33930000     -69.53060000
C      -44.61610000     -33.18290000     -69.36260000
C      -44.89290000     -34.19780000     -68.48880000
S      -48.49480000     -32.56360000     -69.84280000
S      -46.57030000     -34.68700000     -68.47390000
H      -44.17980000     -34.73960000     -67.75530000
