40
Properties=species:S:1:pos:R:3 #=T CELL(abcABC):=T 1.889726e+02=T 90.00000=T Traj:=T positionsangstrom=T Step:=T 0=T Bead:=T pbc="F F F"
C      -43.99300000     -31.67230000     -69.45080000
C      -43.63950000     -32.98460000     -69.06350000
C      -44.63460000     -33.91730000     -68.70150000
C      -46.00130000     -33.52160000     -68.63980000
C      -46.33680000     -32.28350000     -69.07870000
C      -45.33130000     -31.35550000     -69.43650000
H      -43.28430000     -30.93360000     -69.60420000
H      -44.39760000     -34.95060000     -68.37130000
H      -47.37900000     -31.93640000     -69.20770000
H      -45.61250000     -30.42380000     -69.81550000
C      -46.99950000     -34.54140000     -68.20040000
H      -47.44410000     -34.40990000     -67.22930000
H      -46.61880000     -35.59430000     -68.15760000
C      -42.20870000     -33.33420000     -69.07540000
H      -41.61500000     -32.77160000     -68.42800000
H      -41.90990000     -34.35520000     -68.74470000
S      -48.47180000     -34.76550000     -69.37140000
S      -41.48420000     -32.85950000     -70.74670000
C      -47.77750000     -35.95500000     -70.57090000
H      -47.64780000     -36.85090000     -70.06700000
H      -48.53030000     -36.10150000     -71.32590000
C      -42.01240000     -34.22350000     -71.85450000
H      -41.50120000     -35.19840000     -71.54670000
H      -41.53460000     -34.05760000     -72.80890000
C      -43.43860000     -34.54160000     -72.01380000
H      -43.61410000     -35.54870000     -72.30510000
H      -44.08350000     -34.43780000     -71.14030000
C      -46.49940000     -35.48920000     -71.30380000
H      -45.79170000     -36.24460000     -71.76860000
H      -45.79380000     -35.06280000     -70.53180000
C      -46.68360000     -34.37620000     -72.31960000
C      -47.89620000     -33.74100000     -72.63170000
C      -45.60030000     -33.65030000     -73.01890000
H      -48.82230000     -34.09530000     -72.33410000
C      -46.03290000     -32.62140000     -73.87730000
C      -44.13650000     -33.67010000     -73.00060000
C      -43.57180000     -32.74670000     -73.78740000
S      -47.78130000     -32.31850000     -73.67890000
S      -44.74970000     -31.71270000     -74.65180000
H      -42.50320000     -32.65220000     -74.16460000
