40
Properties=species:S:1:pos:R:3 #=T CELL(abcABC):=T 1.889726e+02=T 90.00000=T Traj:=T positionsangstrom=T Step:=T 0=T Bead:=T pbc="F F F"
C      -44.26110000     -31.24940000     -70.12750000
C      -43.53250000     -32.39900000     -69.73820000
C      -44.24630000     -33.46210000     -69.16290000
C      -45.67260000     -33.53130000     -69.08580000
C      -46.42830000     -32.40750000     -69.59660000
C      -45.68120000     -31.24290000     -69.98220000
H      -43.85890000     -30.46360000     -70.70300000
H      -43.65820000     -34.13560000     -68.63790000
H      -47.54160000     -32.36650000     -69.62020000
H      -46.12080000     -30.44760000     -70.48470000
C      -46.32740000     -34.68550000     -68.43220000
H      -46.67260000     -34.30720000     -67.45290000
H      -45.63780000     -35.51410000     -68.23570000
C      -42.07170000     -32.49890000     -69.88550000
H      -41.50200000     -31.66060000     -69.38880000
H      -41.71630000     -33.39990000     -69.44000000
S      -47.80550000     -35.47030000     -69.12370000
S      -41.52740000     -32.25150000     -71.66550000
C      -47.09130000     -36.67670000     -70.38930000
H      -46.73240000     -37.61210000     -69.92850000
H      -47.88450000     -37.04700000     -70.97840000
C      -41.80370000     -33.97970000     -72.26310000
H      -41.19250000     -34.75680000     -71.86360000
H      -41.37240000     -34.01730000     -73.31100000
C      -43.26520000     -34.45180000     -72.23590000
H      -43.37830000     -35.36840000     -72.77770000
H      -43.57280000     -34.57830000     -71.26040000
C      -46.01500000     -35.88060000     -71.17760000
H      -45.48790000     -36.55810000     -71.89250000
H      -45.24900000     -35.51770000     -70.54310000
C      -46.54850000     -34.64690000     -71.86430000
C      -47.92750000     -34.35030000     -71.92790000
C      -45.75220000     -33.70610000     -72.60830000
H      -48.70460000     -34.71480000     -71.32730000
C      -46.55380000     -32.68690000     -73.20810000
C      -44.33830000     -33.51910000     -72.85850000
C      -44.08490000     -32.43730000     -73.57000000
S      -48.23500000     -32.82820000     -72.80440000
S      -45.51320000     -31.44690000     -73.94720000
H      -43.10920000     -32.01280000     -73.70220000
