40
Properties=species:S:1:pos:R:3 #=T CELL(abcABC):=T 1.889726e+02=T 90.00000=T Traj:=T positionsangstrom=T Step:=T 0=T Bead:=T pbc="F F F"
C      -44.28960000     -31.55730000     -70.06440000
C      -43.70690000     -32.71680000     -69.49840000
C      -44.56510000     -33.63860000     -68.83700000
C      -45.92010000     -33.48320000     -68.59010000
C      -46.49470000     -32.27050000     -69.12880000
C      -45.63440000     -31.40330000     -69.75700000
H      -43.71540000     -30.78550000     -70.66900000
H      -44.14410000     -34.55140000     -68.45150000
H      -47.50370000     -32.03080000     -68.96860000
H      -46.14120000     -30.41400000     -70.03520000
C      -46.78980000     -34.58500000     -67.96020000
H      -47.28120000     -34.16610000     -67.02610000
H      -46.20860000     -35.42300000     -67.66670000
C      -42.24050000     -32.90990000     -69.48210000
H      -41.78960000     -32.04310000     -68.87910000
H      -41.89970000     -33.77280000     -69.00260000
S      -48.24660000     -35.10340000     -69.02380000
S      -41.49430000     -32.75380000     -71.25040000
C      -47.44180000     -36.10120000     -70.45690000
H      -47.18530000     -37.07450000     -70.11130000
H      -48.25830000     -36.32630000     -71.10260000
C      -41.87360000     -34.36150000     -72.15720000
H      -41.30710000     -35.18230000     -71.71830000
H      -41.39200000     -34.30510000     -73.18470000
C      -43.32140000     -34.65600000     -72.18320000
H      -43.56960000     -35.58020000     -72.61560000
H      -43.58220000     -34.60820000     -71.14910000
C      -46.25910000     -35.55490000     -71.21770000
H      -45.71980000     -36.46150000     -71.64700000
H      -45.41780000     -35.25370000     -70.51980000
C      -46.47880000     -34.39700000     -72.11950000
C      -47.80040000     -33.95970000     -72.38850000
C      -45.58930000     -33.52250000     -72.79220000
H      -48.65480000     -34.31030000     -71.79500000
C      -46.15090000     -32.57590000     -73.56530000
C      -44.14710000     -33.54130000     -72.89710000
C      -43.66860000     -32.54110000     -73.68330000
S      -47.95240000     -32.58260000     -73.51670000
S      -45.00370000     -31.56870000     -74.34910000
H      -42.65900000     -32.25180000     -73.85310000
