40
Properties=species:S:1:pos:R:3 #=T CELL(abcABC):=T 1.889726e+02=T 90.00000=T Traj:=T positionsangstrom=T Step:=T 0=T Bead:=T pbc="F F F"
C      -44.08310000     -31.63000000     -69.11900000
C      -43.74610000     -32.96610000     -68.88850000
C      -44.77200000     -33.90340000     -68.76190000
C      -46.12130000     -33.51870000     -68.72970000
C      -46.43040000     -32.14800000     -68.71540000
C      -45.41250000     -31.26050000     -68.92310000
H      -43.17470000     -30.91390000     -69.23090000
H      -44.48430000     -34.88450000     -68.54490000
H      -47.43660000     -31.80230000     -68.61220000
H      -45.66680000     -30.14390000     -68.93710000
C      -47.20830000     -34.54480000     -68.42100000
H      -47.60830000     -34.45480000     -67.40260000
H      -46.63470000     -35.49560000     -68.42150000
C      -42.36250000     -33.47670000     -68.92890000
H      -41.75990000     -32.91850000     -68.21090000
H      -42.46740000     -34.49570000     -68.52720000
S      -48.65160000     -34.52130000     -69.67080000
S      -41.51600000     -33.24250000     -70.54820000
C      -48.05170000     -35.77200000     -70.91880000
H      -47.74220000     -36.71600000     -70.47040000
H      -48.80120000     -35.97070000     -71.63250000
C      -41.94290000     -34.57090000     -71.75270000
H      -41.66010000     -35.53080000     -71.32300000
H      -41.41910000     -34.28370000     -72.71340000
C      -43.45860000     -34.77840000     -71.95580000
H      -43.71290000     -35.75020000     -72.37210000
H      -43.93450000     -34.78500000     -71.02290000
C      -46.63540000     -35.34720000     -71.50860000
H      -46.38870000     -36.30740000     -72.03620000
H      -46.06830000     -35.13570000     -70.63110000
C      -46.66040000     -34.17850000     -72.46750000
C      -47.81500000     -33.73370000     -73.10910000
C      -45.49850000     -33.51070000     -72.91300000
H      -48.89270000     -34.02540000     -72.92360000
C      -45.83630000     -32.50950000     -73.83880000
C      -44.06900000     -33.65590000     -72.75190000
C      -43.39770000     -32.77820000     -73.50900000
S      -47.55300000     -32.30620000     -74.06550000
S      -44.43540000     -31.69260000     -74.50170000
H      -42.32760000     -32.70220000     -73.49050000
