40
Properties=species:S:1:pos:R:3 #=T CELL(abcABC):=T 1.889726e+02=T 90.00000=T Traj:=T positionsangstrom=T Step:=T 0=T Bead:=T pbc="F F F"
C      -49.08380000     -34.60450000     -71.32050000
C      -48.61170000     -33.52030000     -72.05000000
C      -48.43540000     -32.25200000     -71.45040000
C      -48.68850000     -32.14550000     -70.08000000
C      -49.13260000     -33.23200000     -69.31080000
C      -49.51180000     -34.35860000     -69.95540000
H      -49.37310000     -35.58290000     -71.77680000
H      -47.94940000     -31.35810000     -71.95210000
H      -49.40880000     -33.09940000     -68.28470000
H      -50.01970000     -35.22280000     -69.45030000
C      -48.28930000     -30.81710000     -69.45660000
H      -48.14550000     -30.87550000     -68.46040000
H      -48.98050000     -30.03050000     -69.86580000
C      -48.29750000     -33.74630000     -73.53240000
H      -47.92930000     -34.76940000     -73.61210000
H      -49.05160000     -33.39650000     -74.26980000
S      -46.56290000     -30.32430000     -70.12000000
S      -46.77440000     -32.79220000     -74.10170000
C      -45.53360000     -31.71770000     -69.41930000
H      -45.04120000     -31.47140000     -68.48260000
H      -46.17360000     -32.54780000     -69.27120000
C      -45.40210000     -33.89020000     -73.61660000
H      -45.37630000     -34.88180000     -74.10870000
H      -45.56630000     -34.11050000     -72.50630000
C      -44.00590000     -33.19900000     -73.74080000
H      -43.64700000     -33.20620000     -74.78380000
H      -44.24450000     -32.16340000     -73.41280000
C      -44.40360000     -32.06460000     -70.47350000
H      -43.83790000     -31.15580000     -70.81480000
H      -44.87560000     -32.15390000     -71.49060000
C      -43.50440000     -33.23150000     -70.29410000
C      -43.11600000     -33.72170000     -69.06320000
C      -42.85480000     -33.89210000     -71.35570000
H      -43.50960000     -33.29930000     -68.11510000
C      -42.04010000     -34.96380000     -70.90050000
C      -43.00290000     -33.91060000     -72.82480000
C      -42.10560000     -34.76330000     -73.36810000
S      -42.05390000     -35.09770000     -69.13390000
S      -41.29420000     -35.83780000     -72.22440000
H      -41.92860000     -34.83190000     -74.43160000
