40
Properties=species:S:1:pos:R:3 #=T CELL(abcABC):=T 1.889726e+02=T 90.00000=T Traj:=T positionsangstrom=T Step:=T 0=T Bead:=T pbc="F F F"
C      -43.91190000     -34.81520000     -72.71840000
C      -43.44760000     -33.48580000     -72.83550000
C      -44.24770000     -32.44840000     -73.47730000
C      -45.53540000     -32.79900000     -73.88750000
C      -46.04230000     -34.10630000     -73.73180000
C      -45.21870000     -35.08640000     -73.16360000
H      -43.24610000     -35.61860000     -72.35350000
H      -43.83430000     -31.51490000     -73.58940000
H      -47.07490000     -34.36400000     -74.08810000
H      -45.52650000     -36.13050000     -73.35120000
C      -46.47380000     -31.71210000     -74.31160000
H      -47.15040000     -32.22610000     -75.00470000
H      -46.03140000     -30.79460000     -74.86890000
C      -42.07950000     -33.13430000     -72.40420000
H      -41.38760000     -34.01080000     -72.58710000
H      -41.65090000     -32.27060000     -72.93730000
S      -47.59250000     -31.16930000     -72.88470000
S      -41.72400000     -32.69360000     -70.58530000
C      -46.52140000     -30.73370000     -71.45150000
H      -45.51600000     -31.09590000     -71.67510000
H      -46.52720000     -29.57270000     -71.39500000
C      -43.21380000     -31.61140000     -70.05790000
H      -43.79470000     -31.58090000     -71.04110000
H      -42.84250000     -30.60710000     -69.78010000
C      -43.96920000     -32.30570000     -68.82900000
H      -43.27930000     -32.48260000     -67.97940000
H      -44.77070000     -31.58130000     -68.47300000
C      -47.02410000     -31.39650000     -70.20060000
H      -48.06190000     -31.08560000     -69.94820000
H      -46.40360000     -31.07470000     -69.32580000
C      -46.94970000     -32.89500000     -70.38270000
C      -48.07340000     -33.60570000     -70.87740000
C      -45.83310000     -33.72220000     -69.98840000
H      -48.96350000     -33.10940000     -71.01710000
C      -46.17020000     -35.05010000     -70.25090000
C      -44.65930000     -33.61400000     -69.17420000
C      -44.04440000     -34.87270000     -68.96620000
S      -47.78170000     -35.34570000     -70.82940000
S      -45.12150000     -36.14070000     -69.50740000
H      -43.12070000     -35.17760000     -68.50970000
