40
Properties=species:S:1:pos:R:3 #=T CELL(abcABC):=T 1.889726e+02=T 90.00000=T Traj:=T positionsangstrom=T Step:=T 0=T Bead:=T pbc="F F F"
C      -44.42750000     -31.32450000     -70.36630000
C      -43.56470000     -32.33950000     -69.81990000
C      -44.13800000     -33.41300000     -69.04670000
C      -45.54400000     -33.42830000     -68.83090000
C      -46.34620000     -32.37450000     -69.29170000
C      -45.79190000     -31.37980000     -70.10980000
H      -44.05390000     -30.55830000     -71.06880000
H      -43.40930000     -34.18210000     -68.59550000
H      -47.37840000     -32.39300000     -69.05520000
H      -46.54740000     -30.67860000     -70.56700000
C      -46.14620000     -34.61060000     -68.02300000
H      -46.51540000     -34.27930000     -67.07290000
H      -45.33740000     -35.29030000     -67.86680000
C      -42.10420000     -32.41310000     -70.04630000
H      -41.60560000     -31.63950000     -69.52520000
H      -41.67260000     -33.40840000     -69.87080000
S      -47.57300000     -35.38560000     -68.86910000
S      -41.44320000     -32.14170000     -71.82260000
C      -46.88970000     -36.61950000     -70.08270000
H      -46.38990000     -37.33960000     -69.57030000
H      -47.76510000     -37.13210000     -70.43520000
C      -41.82830000     -33.71240000     -72.70050000
H      -41.07060000     -34.47300000     -72.38180000
H      -41.73850000     -33.45490000     -73.69440000
C      -43.17640000     -34.32270000     -72.47940000
H      -43.27550000     -35.27870000     -72.94630000
H      -43.33760000     -34.54250000     -71.39960000
C      -45.96250000     -36.03570000     -71.12930000
H      -45.70750000     -36.88570000     -71.72740000
H      -45.03920000     -35.75030000     -70.61640000
C      -46.55560000     -34.82710000     -71.96540000
C      -47.91100000     -34.52830000     -71.96570000
C      -45.81820000     -33.80560000     -72.68260000
H      -48.63530000     -35.28350000     -71.61990000
C      -46.60880000     -32.84350000     -73.23980000
C      -44.41360000     -33.44370000     -72.89290000
C      -44.23490000     -32.28810000     -73.50950000
S      -48.32910000     -33.10850000     -72.90530000
S      -45.80680000     -31.40040000     -73.90610000
H      -43.32180000     -31.87710000     -73.91800000
