40
Properties=species:S:1:pos:R:3 #=T CELL(abcABC):=T 1.889726e+02=T 90.00000=T Traj:=T positionsangstrom=T Step:=T 0=T Bead:=T pbc="F F F"
C      -48.90350000     -34.74790000     -71.16340000
C      -48.72670000     -33.59570000     -71.97850000
C      -48.70260000     -32.32710000     -71.43400000
C      -48.78780000     -32.16020000     -70.01710000
C      -49.05550000     -33.23970000     -69.22470000
C      -49.13850000     -34.54650000     -69.79450000
H      -48.73910000     -35.71660000     -71.57670000
H      -48.42250000     -31.51360000     -72.05990000
H      -49.12490000     -33.23080000     -68.07120000
H      -49.21970000     -35.39720000     -69.15470000
C      -48.39280000     -30.82420000     -69.44390000
H      -48.41140000     -30.75190000     -68.27760000
H      -49.17100000     -30.13130000     -69.65920000
C      -48.26930000     -33.71290000     -73.52190000
H      -48.19190000     -34.71890000     -73.85300000
H      -49.09850000     -33.36470000     -74.12980000
S      -46.62190000     -30.38890000     -69.98400000
S      -46.78950000     -32.76560000     -74.03080000
C      -45.52860000     -31.80500000     -69.46050000
H      -45.00290000     -31.60260000     -68.49240000
H      -46.21180000     -32.71260000     -69.37630000
C      -45.43950000     -33.89240000     -73.63050000
H      -45.36630000     -34.81550000     -74.26820000
H      -45.58450000     -34.24490000     -72.61100000
C      -44.06860000     -33.14940000     -73.71960000
H      -43.73800000     -33.14890000     -74.78170000
H      -44.03110000     -32.11150000     -73.40620000
C      -44.51030000     -31.98120000     -70.61450000
H      -43.94820000     -31.07480000     -70.67110000
H      -45.03510000     -32.25060000     -71.49460000
C      -43.58500000     -33.21310000     -70.40760000
C      -43.15670000     -33.65190000     -69.16360000
C      -42.97130000     -33.97080000     -71.45940000
H      -43.39400000     -33.14380000     -68.24230000
C      -42.06620000     -34.96000000     -70.94700000
C      -43.04280000     -34.00970000     -72.92940000
C      -42.18400000     -34.91470000     -73.49770000
S      -41.93040000     -34.89250000     -69.24510000
S      -41.16610000     -35.72620000     -72.26050000
H      -41.93540000     -35.09160000     -74.53930000
