40
Properties=species:S:1:pos:R:3 #=T CELL(abcABC):=T 1.889726e+02=T 90.00000=T Traj:=T positionsangstrom=T Step:=T 0=T Bead:=T pbc="F F F"
C      -43.13700000     -33.54970000     -72.75640000
C      -43.31160000     -32.14540000     -72.78460000
C      -44.50890000     -31.59310000     -73.18030000
C      -45.58610000     -32.41130000     -73.69190000
C      -45.33300000     -33.77740000     -73.73440000
C      -44.12500000     -34.40560000     -73.27190000
H      -42.29170000     -33.99480000     -72.29600000
H      -44.49600000     -30.52110000     -73.24630000
H      -46.05630000     -34.48520000     -74.25620000
H      -43.93300000     -35.44350000     -73.35340000
C      -46.86810000     -31.70610000     -74.10620000
H      -47.29200000     -32.01060000     -75.06590000
H      -46.68250000     -30.59240000     -74.12060000
C      -42.27570000     -31.25220000     -72.11200000
H      -41.31490000     -31.56930000     -72.47730000
H      -42.36310000     -30.17570000     -72.17450000
S      -48.25520000     -32.10080000     -72.89360000
S      -42.41870000     -31.69260000     -70.32120000
C      -47.64630000     -31.46970000     -71.28860000
H      -46.60450000     -31.24560000     -71.49850000
H      -48.07290000     -30.51820000     -70.93100000
C      -44.14540000     -31.31570000     -69.80320000
H      -44.75690000     -31.36950000     -70.74250000
H      -44.11210000     -30.32340000     -69.32610000
C      -44.57350000     -32.28500000     -68.77640000
H      -43.94650000     -32.29120000     -67.92600000
H      -45.58780000     -32.06000000     -68.40920000
C      -47.83820000     -32.47980000     -70.11420000
H      -48.93700000     -32.66560000     -70.10150000
H      -47.60480000     -31.95130000     -69.17460000
C      -47.18280000     -33.84990000     -70.27690000
C      -47.97280000     -34.84520000     -70.91330000
C      -45.83580000     -34.24440000     -69.98020000
H      -48.93190000     -34.68720000     -71.43380000
C      -45.61110000     -35.58350000     -70.31490000
C      -44.69630000     -33.69070000     -69.31720000
C      -43.63220000     -34.61790000     -69.26110000
S      -47.01640000     -36.33510000     -71.11820000
S      -43.99870000     -36.15610000     -69.94640000
H      -42.78240000     -34.52040000     -68.57080000
