40
Properties=species:S:1:pos:R:3 #=T CELL(abcABC):=T 1.889726e+02=T 90.00000=T Traj:=T positionsangstrom=T Step:=T 0=T Bead:=T pbc="F F F"
C      -43.15170000     -33.72550000     -72.80860000
C      -43.44880000     -32.29260000     -72.76680000
C      -44.76200000     -31.84690000     -73.01520000
C      -45.77940000     -32.77980000     -73.30100000
C      -45.45800000     -34.14480000     -73.50900000
C      -44.15790000     -34.59520000     -73.26460000
H      -42.11930000     -34.02360000     -72.78530000
H      -44.98360000     -30.73510000     -72.95390000
H      -46.23640000     -34.86000000     -74.01980000
H      -43.92010000     -35.67040000     -73.32710000
C      -47.11920000     -32.28720000     -73.88230000
H      -47.36700000     -33.08050000     -74.64480000
H      -46.99380000     -31.32750000     -74.44900000
C      -42.37270000     -31.40450000     -72.13110000
H      -41.37520000     -31.75610000     -72.50830000
H      -42.62760000     -30.34190000     -72.42400000
S      -48.58410000     -31.99240000     -72.66030000
S      -42.43610000     -31.55370000     -70.29350000
C      -47.69390000     -31.36600000     -71.21280000
H      -46.63610000     -31.09880000     -71.41540000
H      -48.26920000     -30.54110000     -70.83390000
C      -44.18530000     -31.24160000     -69.70330000
H      -44.89400000     -31.27680000     -70.58290000
H      -44.31290000     -30.21670000     -69.29590000
C      -44.55340000     -32.26760000     -68.58660000
H      -43.76390000     -32.33760000     -67.72810000
H      -45.46610000     -31.93870000     -68.05840000
C      -47.74560000     -32.46430000     -70.04040000
H      -48.77600000     -32.63270000     -69.76550000
H      -47.17580000     -32.02930000     -69.17090000
C      -47.08850000     -33.76720000     -70.37390000
C      -47.73620000     -34.73780000     -71.12770000
C      -45.73470000     -34.15640000     -70.08020000
H      -48.72910000     -34.64860000     -71.51520000
C      -45.44720000     -35.41870000     -70.63020000
C      -44.68120000     -33.67680000     -69.23370000
C      -43.51970000     -34.47020000     -69.24920000
S      -46.76720000     -36.15960000     -71.40390000
S      -43.75290000     -35.96810000     -70.23830000
H      -42.61320000     -34.41420000     -68.69720000
