40
Properties=species:S:1:pos:R:3 #=T CELL(abcABC):=T 1.889726e+02=T 90.00000=T Traj:=T positionsangstrom=T Step:=T 0=T Bead:=T pbc="F F F"
C      -48.65570000     -33.84940000     -71.97800000
C      -48.22620000     -32.72740000     -72.63890000
C      -47.81410000     -31.67440000     -71.81340000
C      -47.99050000     -31.67450000     -70.40120000
C      -48.60290000     -32.80890000     -69.81710000
C      -48.97200000     -33.87420000     -70.61400000
H      -49.05700000     -34.67150000     -72.62130000
H      -47.21720000     -30.82940000     -72.21850000
H      -48.69720000     -32.83410000     -68.75760000
H      -49.26800000     -34.80880000     -70.14290000
C      -47.64130000     -30.40060000     -69.64500000
H      -47.82560000     -30.42030000     -68.54020000
H      -48.26680000     -29.55930000     -70.00840000
C      -48.00730000     -32.59810000     -74.14430000
H      -48.92930000     -32.62680000     -74.66840000
H      -47.59280000     -31.58530000     -74.32620000
S      -45.96000000     -29.74060000     -69.98980000
S      -46.92220000     -33.94150000     -74.98850000
C      -44.78410000     -31.29940000     -69.79420000
H      -44.30800000     -31.24860000     -68.84750000
H      -45.43960000     -32.13090000     -69.86540000
C      -46.10420000     -34.93090000     -73.67650000
H      -45.39190000     -35.58590000     -74.34470000
H      -46.76810000     -35.64200000     -73.12960000
C      -45.24670000     -34.06920000     -72.71660000
H      -44.71620000     -33.35730000     -73.38470000
H      -45.92700000     -33.51080000     -72.06480000
C      -43.81350000     -31.57700000     -70.91600000
H      -42.92300000     -30.86570000     -70.97040000
H      -44.25100000     -31.72050000     -71.86680000
C      -43.06600000     -32.86610000     -70.51090000
C      -41.98380000     -32.85680000     -69.64320000
C      -43.38110000     -34.27060000     -70.90350000
H      -41.55780000     -31.97110000     -69.18390000
C      -42.54240000     -35.17890000     -70.33130000
C      -44.24500000     -34.87840000     -71.94610000
C      -44.00540000     -36.28360000     -71.98690000
S      -41.46830000     -34.51620000     -69.10090000
S      -42.75840000     -36.80240000     -70.95060000
H      -44.61750000     -36.97030000     -72.58270000
