40
Properties=species:S:1:pos:R:3 #=T CELL(abcABC):=T 1.889726e+02=T 90.00000=T Traj:=T positionsangstrom=T Step:=T 0=T Bead:=T pbc="F F F"
C      -43.17800000     -33.78780000     -72.91550000
C      -43.54550000     -32.41400000     -72.61500000
C      -44.87580000     -31.96880000     -72.95080000
C      -45.79840000     -32.83830000     -73.53750000
C      -45.45720000     -34.17470000     -73.75540000
C      -44.17570000     -34.59610000     -73.54860000
H      -42.24240000     -34.07730000     -72.55630000
H      -45.27670000     -30.93080000     -72.88690000
H      -46.27990000     -34.88360000     -74.13870000
H      -43.91550000     -35.55390000     -73.87330000
C      -47.09380000     -32.24430000     -73.95160000
H      -47.55160000     -32.87270000     -74.65880000
H      -46.96740000     -31.25830000     -74.36830000
C      -42.51010000     -31.43510000     -72.11740000
H      -41.49780000     -31.43980000     -72.46120000
H      -42.76330000     -30.42560000     -72.43040000
S      -48.47380000     -32.03420000     -72.68740000
S      -42.31380000     -31.41350000     -70.16780000
C      -47.74550000     -31.39450000     -71.10090000
H      -46.67820000     -31.03450000     -71.18850000
H      -48.24750000     -30.40200000     -70.87620000
C      -44.06320000     -31.14420000     -69.63850000
H      -44.82070000     -31.14480000     -70.47930000
H      -44.12360000     -30.18390000     -69.16470000
C      -44.49670000     -32.21560000     -68.68120000
H      -43.79830000     -32.17500000     -67.84320000
H      -45.42930000     -31.79540000     -68.23640000
C      -47.85410000     -32.47910000     -69.98130000
H      -48.87930000     -32.78040000     -69.77240000
H      -47.44170000     -31.93520000     -69.08920000
C      -47.12130000     -33.77750000     -70.27880000
C      -47.81370000     -34.80110000     -70.87800000
C      -45.74160000     -34.17320000     -70.07410000
H      -48.88080000     -34.65370000     -71.20650000
C      -45.45760000     -35.45510000     -70.56160000
C      -44.61050000     -33.55750000     -69.37140000
C      -43.52320000     -34.46610000     -69.37620000
S      -46.78200000     -36.16630000     -71.35490000
S      -43.77500000     -35.98830000     -70.23220000
H      -42.60860000     -34.32030000     -68.85830000
