40
Properties=species:S:1:pos:R:3 #=T CELL(abcABC):=T 1.889726e+02=T 90.00000=T Traj:=T positionsangstrom=T Step:=T 0=T Bead:=T pbc="F F F"
C      -49.33660000     -33.82070000     -71.56180000
C      -48.73710000     -32.95130000     -72.52160000
C      -48.11270000     -31.79120000     -72.12320000
C      -48.18410000     -31.34700000     -70.76150000
C      -48.66670000     -32.22420000     -69.80960000
C      -49.17450000     -33.44160000     -70.15300000
H      -49.71170000     -34.79440000     -71.94590000
H      -47.80730000     -31.05940000     -72.90840000
H      -48.79040000     -31.95070000     -68.79120000
H      -49.66390000     -34.03060000     -69.31420000
C      -47.70430000     -29.96630000     -70.41160000
H      -48.11340000     -29.63580000     -69.45190000
H      -47.96010000     -29.20520000     -71.23400000
C      -48.77150000     -33.34690000     -73.99840000
H      -49.51650000     -34.11530000     -74.12030000
H      -49.06940000     -32.54160000     -74.68740000
S      -45.81120000     -30.01060000     -70.43120000
S      -47.17540000     -33.99940000     -74.67680000
C      -45.07430000     -31.61790000     -69.90100000
H      -44.84300000     -31.62730000     -68.82630000
H      -45.77380000     -32.47800000     -69.91020000
C      -46.33490000     -34.78970000     -73.31070000
H      -46.08300000     -35.79990000     -73.65010000
H      -47.06350000     -34.90210000     -72.51800000
C      -45.06690000     -34.07250000     -72.72140000
H      -44.50280000     -33.58720000     -73.42200000
H      -45.33670000     -33.27820000     -72.01690000
C      -43.75260000     -31.76260000     -70.65990000
H      -42.99760000     -30.95990000     -70.35650000
H      -43.80090000     -31.72960000     -71.76130000
C      -42.96320000     -32.98110000     -70.24870000
C      -41.98970000     -32.98600000     -69.32940000
C      -43.08450000     -34.21910000     -70.91450000
H      -41.78230000     -32.23250000     -68.56560000
C      -42.19240000     -35.09070000     -70.40310000
C      -43.99230000     -34.87520000     -71.90130000
C      -43.57710000     -36.12560000     -72.16560000
S      -41.13340000     -34.46470000     -69.14580000
S      -42.24550000     -36.66520000     -71.03630000
H      -44.12530000     -36.85550000     -72.68480000
