40
Properties=species:S:1:pos:R:3 #=T CELL(abcABC):=T 1.889726e+02=T 90.00000=T Traj:=T positionsangstrom=T Step:=T 0=T Bead:=T pbc="F F F"
C      -43.30630000     -33.82810000     -72.79730000
C      -43.55390000     -32.42460000     -72.53120000
C      -44.84950000     -31.88330000     -72.90960000
C      -45.77900000     -32.65980000     -73.65720000
C      -45.46130000     -33.98100000     -73.98030000
C      -44.29040000     -34.53180000     -73.51800000
H      -42.37850000     -34.30130000     -72.42850000
H      -44.98010000     -30.82070000     -72.78640000
H      -46.19190000     -34.49580000     -74.53290000
H      -44.11450000     -35.55250000     -73.84880000
C      -47.09690000     -32.00280000     -74.04600000
H      -47.52110000     -32.47360000     -74.91520000
H      -46.93570000     -30.94720000     -74.37790000
C      -42.50440000     -31.47690000     -72.00460000
H      -41.46200000     -31.80160000     -72.29570000
H      -42.78920000     -30.46950000     -72.40430000
S      -48.38080000     -32.12930000     -72.79430000
S      -42.29890000     -31.38550000     -70.23040000
C      -47.55010000     -31.53160000     -71.18110000
H      -46.49970000     -31.45170000     -71.20810000
H      -47.94680000     -30.60290000     -70.92700000
C      -43.99780000     -31.02430000     -69.48710000
H      -44.68080000     -30.78610000     -70.30120000
H      -43.90710000     -30.13080000     -68.84250000
C      -44.51650000     -32.17980000     -68.69120000
H      -43.84300000     -32.33970000     -67.92260000
H      -45.45040000     -32.00760000     -68.19000000
C      -47.75090000     -32.45130000     -70.00650000
H      -48.80870000     -32.53650000     -69.85810000
H      -47.40240000     -32.01400000     -69.09760000
C      -47.12280000     -33.78420000     -70.29620000
C      -47.81420000     -34.78820000     -70.94090000
C      -45.78130000     -34.25270000     -69.94770000
H      -48.91610000     -34.87360000     -71.10650000
C      -45.51270000     -35.50440000     -70.43940000
C      -44.61680000     -33.57680000     -69.45970000
C      -43.51040000     -34.45810000     -69.43090000
S      -46.87240000     -36.28240000     -71.22610000
S      -43.84300000     -36.02980000     -70.18970000
H      -42.52370000     -34.06550000     -69.21080000
