40
Properties=species:S:1:pos:R:3 #=T CELL(abcABC):=T 1.889726e+02=T 90.00000=T Traj:=T positionsangstrom=T Step:=T 0=T Bead:=T pbc="F F F"
C      -48.69930000     -34.79880000     -71.38340000
C      -48.50810000     -33.59870000     -72.07180000
C      -48.38140000     -32.42850000     -71.30960000
C      -48.49200000     -32.37730000     -69.90190000
C      -48.74400000     -33.61150000     -69.21480000
C      -48.87250000     -34.77840000     -69.98140000
H      -48.84220000     -35.70190000     -71.94960000
H      -48.16700000     -31.53850000     -71.90180000
H      -48.94850000     -33.61700000     -68.17880000
H      -49.23280000     -35.70400000     -69.60690000
C      -48.32690000     -31.11560000     -69.17870000
H      -48.44830000     -31.17730000     -68.12250000
H      -48.97190000     -30.26200000     -69.57000000
C      -48.50340000     -33.62700000     -73.62490000
H      -48.52900000     -34.63010000     -74.02660000
H      -49.31310000     -32.97040000     -73.96340000
S      -46.61710000     -30.32450000     -69.41680000
S      -46.97090000     -32.86200000     -74.29270000
C      -45.44680000     -31.67220000     -69.26700000
H      -44.70280000     -31.26530000     -68.59510000
H      -45.96940000     -32.57920000     -69.00080000
C      -45.64200000     -33.97490000     -73.65100000
H      -45.69690000     -34.97760000     -74.02890000
H      -45.81320000     -34.06640000     -72.54170000
C      -44.25220000     -33.42330000     -73.85690000
H      -43.91570000     -33.50650000     -74.86840000
H      -44.31780000     -32.35080000     -73.61660000
C      -44.77610000     -32.04480000     -70.62210000
H      -44.34200000     -31.24180000     -71.11860000
H      -45.55110000     -32.38160000     -71.28610000
C      -43.67070000     -33.12900000     -70.49910000
C      -43.03430000     -33.22970000     -69.29080000
C      -43.12330000     -33.98560000     -71.56250000
H      -43.20610000     -32.62210000     -68.40540000
C      -42.07400000     -34.73000000     -71.02120000
C      -43.25660000     -34.20570000     -72.98560000
C      -42.36230000     -35.09640000     -73.50690000
S      -41.80110000     -34.47620000     -69.34580000
S      -41.20490000     -35.65670000     -72.24860000
H      -42.24700000     -35.46470000     -74.54730000
