40
Properties=species:S:1:pos:R:3 #=T CELL(abcABC):=T 1.889726e+02=T 90.00000=T Traj:=T positionsangstrom=T Step:=T 0=T Bead:=T pbc="F F F"
C      -43.71840000     -31.41460000     -70.86350000
C      -43.01370000     -32.50520000     -70.29560000
C      -43.58220000     -33.39320000     -69.35230000
C      -44.76240000     -32.90140000     -68.78120000
C      -45.44100000     -31.71840000     -69.23400000
C      -44.88220000     -30.92440000     -70.24920000
H      -43.27260000     -30.75020000     -71.55910000
H      -43.13580000     -34.25640000     -68.99800000
H      -46.24760000     -31.39030000     -68.64560000
H      -45.39800000     -30.07650000     -70.62580000
C      -45.37890000     -33.64390000     -67.60520000
H      -45.65830000     -32.99870000     -66.74990000
H      -44.85290000     -34.45900000     -67.16860000
C      -41.69890000     -32.76050000     -71.00160000
H      -41.10930000     -31.88930000     -70.91260000
H      -41.13280000     -33.64840000     -70.63490000
S      -47.04160000     -34.51780000     -67.87420000
S      -41.71640000     -32.79320000     -72.80810000
C      -46.73680000     -35.93020000     -69.11230000
H      -46.10000000     -36.59580000     -68.60750000
H      -47.67290000     -36.40750000     -69.17240000
C      -42.37620000     -34.44550000     -73.10270000
H      -41.72350000     -35.15270000     -72.64510000
H      -42.26320000     -34.58360000     -74.16760000
C      -43.77190000     -34.76820000     -72.59860000
H      -43.97990000     -35.83090000     -72.79410000
H      -43.75330000     -34.71570000     -71.48230000
C      -46.14200000     -35.58740000     -70.49270000
H      -46.03290000     -36.53780000     -71.04520000
H      -45.07660000     -35.22530000     -70.27420000
C      -46.88030000     -34.60550000     -71.41810000
C      -48.16430000     -34.26480000     -71.26840000
C      -46.27130000     -33.96160000     -72.57270000
H      -48.86330000     -34.64950000     -70.55900000
C      -47.15170000     -33.01610000     -73.13910000
C      -44.94860000     -33.95770000     -73.10760000
C      -44.88830000     -33.10440000     -74.14030000
S      -48.79060000     -33.08710000     -72.49180000
S      -46.30190000     -32.01910000     -74.31100000
H      -44.00170000     -32.77720000     -74.64690000
