40
Properties=species:S:1:pos:R:3 #=T CELL(abcABC):=T 1.889726e+02=T 90.00000=T Traj:=T positionsangstrom=T Step:=T 0=T Bead:=T pbc="F F F"
C      -43.75440000     -31.25410000     -70.82480000
C      -43.01850000     -32.34540000     -70.42130000
C      -43.59790000     -33.26230000     -69.54520000
C      -44.87500000     -32.92900000     -68.90330000
C      -45.59010000     -31.76360000     -69.31620000
C      -44.96690000     -30.91040000     -70.23660000
H      -43.29590000     -30.52690000     -71.54610000
H      -43.08700000     -34.15030000     -69.28040000
H      -46.61430000     -31.48980000     -68.83920000
H      -45.47120000     -30.09470000     -70.69760000
C      -45.32350000     -33.96820000     -67.85870000
H      -45.13980000     -33.58130000     -66.83340000
H      -44.76390000     -34.84240000     -68.04390000
C      -41.68530000     -32.62720000     -70.96290000
H      -40.99400000     -31.80090000     -70.80850000
H      -41.21510000     -33.55410000     -70.70050000
S      -47.10560000     -34.43530000     -67.93960000
S      -41.74280000     -32.53080000     -72.83340000
C      -47.00920000     -35.89070000     -69.08250000
H      -46.55380000     -36.67020000     -68.58120000
H      -48.05190000     -36.17860000     -69.26520000
C      -42.24020000     -34.41480000     -73.05300000
H      -41.42480000     -34.91480000     -72.46070000
H      -42.03550000     -34.57600000     -74.13480000
C      -43.74460000     -34.90950000     -72.58920000
H      -43.91410000     -35.87730000     -72.92410000
H      -43.81680000     -35.00190000     -71.52650000
C      -46.17420000     -35.67990000     -70.38640000
H      -45.87480000     -36.61790000     -70.89190000
H      -45.31810000     -35.02120000     -70.17660000
C      -46.92650000     -34.82580000     -71.47340000
C      -48.24920000     -34.43970000     -71.38560000
C      -46.22200000     -34.02080000     -72.43970000
H      -48.92730000     -34.83440000     -70.66540000
C      -47.03010000     -33.07520000     -73.05800000
C      -44.91180000     -34.05920000     -73.03570000
C      -44.78680000     -33.07450000     -74.01820000
S      -48.62230000     -33.03480000     -72.26710000
S      -46.26510000     -32.18690000     -74.30680000
H      -43.88020000     -32.98210000     -74.66660000
