40
Properties=species:S:1:pos:R:3 #=T CELL(abcABC):=T 1.889726e+02=T 90.00000=T Traj:=T positionsangstrom=T Step:=T 0=T Bead:=T pbc="F F F"
C      -43.92770000     -31.62170000     -70.94890000
C      -43.07860000     -32.54750000     -70.34760000
C      -43.57270000     -33.27970000     -69.23360000
C      -44.87530000     -33.02790000     -68.80000000
C      -45.65700000     -32.05620000     -69.36390000
C      -45.20100000     -31.34510000     -70.45550000
H      -43.44160000     -31.08070000     -71.79600000
H      -43.07150000     -34.06600000     -68.69770000
H      -46.65160000     -31.75040000     -69.00410000
H      -45.88880000     -30.60600000     -70.96200000
C      -45.38850000     -33.83350000     -67.62230000
H      -45.60930000     -33.12830000     -66.78440000
H      -44.66880000     -34.58010000     -67.16610000
C      -41.58310000     -32.81360000     -70.90430000
H      -40.95020000     -31.96230000     -70.61530000
H      -41.13920000     -33.71710000     -70.42750000
S      -47.10160000     -34.61730000     -67.98190000
S      -41.50460000     -32.69240000     -72.67830000
C      -46.63760000     -35.90710000     -69.24150000
H      -46.06990000     -36.68280000     -68.70720000
H      -47.63480000     -36.36630000     -69.45050000
C      -42.33010000     -34.19020000     -73.34960000
H      -41.55240000     -34.97440000     -73.35470000
H      -42.48830000     -33.85110000     -74.40520000
C      -43.66060000     -34.69720000     -72.88780000
H      -43.72220000     -35.68980000     -73.45240000
H      -43.51020000     -34.94900000     -71.77770000
C      -45.98300000     -35.62450000     -70.56100000
H      -45.80130000     -36.57790000     -71.04970000
H      -45.00310000     -35.17160000     -70.40240000
C      -46.76820000     -34.64550000     -71.40460000
C      -48.08570000     -34.26620000     -71.02100000
C      -46.26470000     -33.78950000     -72.49240000
H      -48.80430000     -34.76290000     -70.32030000
C      -47.17140000     -32.94970000     -73.09080000
C      -44.91300000     -33.76650000     -73.14730000
C      -44.88180000     -32.73330000     -74.07110000
S      -48.69760000     -32.96520000     -72.11910000
S      -46.49180000     -32.05260000     -74.40430000
H      -43.97920000     -32.59160000     -74.65910000
