40
Properties=species:S:1:pos:R:3 #=T CELL(abcABC):=T 1.889726e+02=T 90.00000=T Traj:=T positionsangstrom=T Step:=T 0=T Bead:=T pbc="F F F"
C      -43.39720000     -33.06290000     -73.22060000
C      -43.53410000     -31.72910000     -72.95270000
C      -44.80910000     -31.18720000     -73.16120000
C      -45.91460000     -31.91530000     -73.64270000
C      -45.71970000     -33.30700000     -73.82780000
C      -44.43480000     -33.86210000     -73.79240000
H      -42.41350000     -33.47740000     -73.06040000
H      -44.90080000     -30.09090000     -72.89320000
H      -46.48700000     -34.03600000     -74.09860000
H      -44.23390000     -34.85150000     -74.08100000
C      -47.24820000     -31.26190000     -73.72910000
H      -47.64790000     -31.28070000     -74.69540000
H      -47.17400000     -30.22690000     -73.34100000
C      -42.43190000     -30.99510000     -72.20160000
H      -41.41330000     -31.13000000     -72.60180000
H      -42.69980000     -29.97460000     -72.14690000
S      -48.40500000     -32.16510000     -72.64570000
S      -42.27370000     -31.58430000     -70.42870000
C      -47.51790000     -31.86000000     -71.07720000
H      -46.48130000     -31.81470000     -71.30270000
H      -47.84440000     -30.91610000     -70.64190000
C      -43.97510000     -31.38700000     -69.65730000
H      -44.62730000     -31.09110000     -70.48320000
H      -44.08200000     -30.47490000     -69.07740000
C      -44.40370000     -32.48830000     -68.77940000
H      -43.64540000     -32.57960000     -67.92590000
H      -45.34810000     -32.26150000     -68.21890000
C      -47.64950000     -32.83520000     -69.86010000
H      -48.70560000     -32.83090000     -69.48570000
H      -47.08540000     -32.38020000     -69.05270000
C      -47.15060000     -34.25970000     -70.05190000
C      -47.86630000     -35.31430000     -70.58750000
C      -45.74070000     -34.62210000     -69.86680000
H      -48.85460000     -35.21010000     -70.82410000
C      -45.45090000     -35.86020000     -70.36590000
C      -44.53610000     -33.78970000     -69.52830000
C      -43.42290000     -34.57250000     -69.61550000
S      -46.87600000     -36.74670000     -70.84810000
S      -43.77940000     -36.17360000     -70.33060000
H      -42.40690000     -34.42870000     -69.21610000
