40
Properties=species:S:1:pos:R:3 #=T CELL(abcABC):=T 1.889726e+02=T 90.00000=T Traj:=T positionsangstrom=T Step:=T 0=T Bead:=T pbc="F F F"
C      -45.92280000     -36.93700000     -70.45570000
C      -46.33940000     -36.42690000     -71.72970000
C      -47.43750000     -35.53420000     -71.75240000
C      -48.14700000     -35.23470000     -70.58070000
C      -47.69950000     -35.71590000     -69.39940000
C      -46.62240000     -36.57200000     -69.35980000
H      -45.14340000     -37.69900000     -70.37780000
H      -47.79020000     -35.12140000     -72.69740000
H      -48.23030000     -35.48330000     -68.48160000
H      -46.18520000     -37.05330000     -68.44170000
C      -49.36700000     -34.31680000     -70.68070000
H      -49.66310000     -33.94470000     -69.73900000
H      -50.23930000     -34.79280000     -71.12150000
C      -45.73830000     -36.74710000     -73.08490000
H      -46.07240000     -37.73670000     -73.50160000
H      -46.07680000     -36.09000000     -73.84650000
S      -48.99330000     -32.82040000     -71.79770000
S      -43.88810000     -36.75650000     -73.00660000
C      -47.90680000     -31.87470000     -70.54730000
H      -48.10900000     -30.78940000     -70.84670000
H      -48.26210000     -32.08760000     -69.51650000
C      -43.35490000     -35.01010000     -72.88830000
H      -43.52670000     -34.57910000     -73.82050000
H      -42.28120000     -34.93770000     -72.82980000
C      -43.98000000     -34.13560000     -71.78660000
H      -44.98370000     -34.05950000     -72.09360000
H      -43.94010000     -34.67630000     -70.78930000
C      -46.48740000     -32.28180000     -70.77570000
H      -46.34700000     -32.65090000     -71.78880000
H      -46.19020000     -33.19800000     -70.19510000
C      -45.33670000     -31.26210000     -70.58050000
C      -45.39220000     -29.96000000     -70.10980000
C      -44.03110000     -31.62110000     -71.17240000
H      -46.27310000     -29.55040000     -69.59610000
C      -43.13350000     -30.52120000     -71.11970000
C      -43.38550000     -32.83800000     -71.64970000
C      -42.05640000     -32.65680000     -71.95830000
S      -43.77960000     -29.15640000     -70.17660000
S      -41.54300000     -30.98190000     -71.65310000
H      -41.29440000     -33.10090000     -72.62950000
