40
Properties=species:S:1:pos:R:3 #=T CELL(abcABC):=T 1.889726e+02=T 90.00000=T Traj:=T positionsangstrom=T Step:=T 0=T Bead:=T pbc="F F F"
C      -43.36090000     -33.17930000     -73.07750000
C      -43.61430000     -31.87360000     -72.77960000
C      -44.85670000     -31.35970000     -73.03430000
C      -45.96360000     -32.11610000     -73.64530000
C      -45.61080000     -33.39810000     -74.00620000
C      -44.38020000     -33.92770000     -73.68550000
H      -42.34260000     -33.55930000     -72.96980000
H      -44.96830000     -30.31730000     -72.68340000
H      -46.31450000     -34.10730000     -74.47050000
H      -44.30820000     -35.03320000     -73.87450000
C      -47.32830000     -31.61490000     -73.89450000
H      -47.79810000     -32.02900000     -74.78610000
H      -47.43200000     -30.51990000     -74.05340000
C      -42.52450000     -31.02450000     -72.12460000
H      -41.54310000     -31.23720000     -72.61210000
H      -42.66710000     -29.94080000     -72.08960000
S      -48.44700000     -32.23990000     -72.56730000
S      -42.33120000     -31.58140000     -70.34950000
C      -47.48340000     -31.96070000     -70.94600000
H      -46.44770000     -31.97690000     -71.19900000
H      -47.66020000     -30.87420000     -70.74610000
C      -44.10520000     -31.22030000     -69.75220000
H      -44.74390000     -31.28820000     -70.69860000
H      -44.10420000     -30.35210000     -69.15770000
C      -44.51440000     -32.41150000     -68.82250000
H      -43.93460000     -32.33590000     -67.94480000
H      -45.50420000     -32.07590000     -68.53770000
C      -47.92190000     -32.97870000     -69.91520000
H      -48.94530000     -33.25890000     -70.13000000
H      -47.96280000     -32.51910000     -68.94160000
C      -47.04610000     -34.17860000     -70.07070000
C      -47.75110000     -35.19820000     -70.71120000
C      -45.66890000     -34.38760000     -69.95930000
H      -48.78040000     -35.22170000     -70.76780000
C      -45.36400000     -35.62350000     -70.52020000
C      -44.48830000     -33.72170000     -69.43280000
C      -43.37250000     -34.51720000     -69.48240000
S      -46.76600000     -36.60100000     -71.02580000
S      -43.67380000     -36.04010000     -70.28640000
H      -42.47750000     -34.44560000     -68.94520000
