40
Properties=species:S:1:pos:R:3 #=T CELL(abcABC):=T 1.889726e+02=T 90.00000=T Traj:=T positionsangstrom=T Step:=T 0=T Bead:=T pbc="F F F"
C      -43.43280000     -33.15990000     -73.48530000
C      -43.61970000     -31.85770000     -72.90800000
C      -44.81760000     -31.24730000     -72.99790000
C      -45.97860000     -31.93500000     -73.51290000
C      -45.83000000     -33.21610000     -73.99460000
C      -44.56420000     -33.85980000     -74.01030000
H      -42.36130000     -33.58560000     -73.43310000
H      -44.93660000     -30.25320000     -72.64940000
H      -46.62470000     -33.80920000     -74.35390000
H      -44.47030000     -34.92780000     -74.27190000
C      -47.36540000     -31.28480000     -73.48340000
H      -47.87980000     -31.58470000     -74.44760000
H      -47.38330000     -30.18590000     -73.43540000
C      -42.52530000     -31.17990000     -72.20500000
H      -41.56010000     -31.30850000     -72.64820000
H      -42.73520000     -30.11560000     -72.01920000
S      -48.44620000     -31.86880000     -72.06830000
S      -42.18280000     -31.92060000     -70.40820000
C      -47.28040000     -31.50880000     -70.66030000
H      -46.23610000     -31.47260000     -71.11700000
H      -47.45070000     -30.50760000     -70.22110000
C      -43.74420000     -31.71790000     -69.42010000
H      -44.54450000     -31.44230000     -70.02070000
H      -43.62460000     -30.82990000     -68.68260000
C      -43.87000000     -33.00010000     -68.57620000
H      -42.90820000     -33.36000000     -68.24140000
H      -44.60240000     -32.88800000     -67.74480000
C      -47.23740000     -32.55430000     -69.54640000
H      -48.14580000     -32.63650000     -68.90830000
H      -46.50570000     -32.29230000     -68.76630000
C      -46.90910000     -33.91660000     -70.17050000
C      -47.87660000     -34.67270000     -70.74990000
C      -45.62930000     -34.49600000     -70.06030000
H      -48.93390000     -34.59480000     -70.83130000
C      -45.54590000     -35.64600000     -70.81140000
C      -44.34100000     -34.20310000     -69.41810000
C      -43.44230000     -35.18410000     -69.62180000
S      -47.12900000     -36.12830000     -71.39250000
S      -44.11010000     -36.57000000     -70.55230000
H      -42.38040000     -35.11290000     -69.40810000
