40
Properties=species:S:1:pos:R:3 #=T CELL(abcABC):=T 1.889726e+02=T 90.00000=T Traj:=T positionsangstrom=T Step:=T 0=T Bead:=T pbc="F F F"
C      -45.93760000     -37.02670000     -70.26760000
C      -46.41910000     -36.41550000     -71.40880000
C      -47.49820000     -35.53990000     -71.34580000
C      -48.06500000     -35.16510000     -70.12920000
C      -47.53930000     -35.73120000     -68.98990000
C      -46.47720000     -36.69010000     -69.03560000
H      -45.16660000     -37.78320000     -70.32120000
H      -47.66430000     -34.92440000     -72.20570000
H      -48.02510000     -35.59710000     -68.06800000
H      -46.14570000     -37.22940000     -68.15070000
C      -49.05620000     -33.99490000     -70.04620000
H      -48.77120000     -33.36050000     -69.24180000
H      -50.11480000     -34.30720000     -69.72500000
C      -45.96890000     -36.70870000     -72.80930000
H      -46.17820000     -37.71780000     -73.14620000
H      -46.62620000     -36.02450000     -73.44050000
S      -49.16420000     -33.02890000     -71.69610000
S      -44.19700000     -36.56430000     -73.22050000
C      -47.85410000     -31.71640000     -71.43610000
H      -48.05180000     -31.25360000     -72.40970000
H      -48.06240000     -31.15910000     -70.58720000
C      -43.84030000     -34.72180000     -72.94320000
H      -44.60720000     -34.12930000     -73.38990000
H      -43.04500000     -34.57130000     -73.55580000
C      -43.65130000     -34.37490000     -71.40300000
H      -44.49290000     -34.55200000     -70.76270000
H      -42.89280000     -35.02290000     -71.09050000
C      -46.46070000     -32.27700000     -71.40400000
H      -46.20580000     -32.85360000     -72.33200000
H      -46.37350000     -32.98830000     -70.59380000
C      -45.30520000     -31.25560000     -71.24810000
C      -45.46050000     -29.92590000     -71.21030000
C      -43.91910000     -31.73110000     -71.13390000
H      -46.31480000     -29.42570000     -71.46740000
C      -43.07150000     -30.62850000     -71.04710000
C      -43.14280000     -32.93980000     -71.22230000
C      -41.79830000     -32.76560000     -71.06810000
S      -43.85830000     -29.09180000     -71.14030000
S      -41.33700000     -31.07810000     -71.15680000
H      -41.05540000     -33.56670000     -71.05520000
