40
Properties=species:S:1:pos:R:3 #=T CELL(abcABC):=T 1.889726e+02=T 90.00000=T Traj:=T positionsangstrom=T Step:=T 0=T Bead:=T pbc="F F F"
C      -43.40750000     -33.13940000     -73.25250000
C      -43.59760000     -31.83000000     -72.81630000
C      -44.92130000     -31.30030000     -72.84190000
C      -45.96150000     -31.98660000     -73.50330000
C      -45.62220000     -33.14820000     -74.18670000
C      -44.41190000     -33.73940000     -74.11760000
H      -42.36100000     -33.60590000     -73.10210000
H      -45.02210000     -30.29380000     -72.42680000
H      -46.43210000     -33.56500000     -74.76790000
H      -44.14740000     -34.60370000     -74.74390000
C      -47.30740000     -31.32720000     -73.57300000
H      -47.82170000     -31.54430000     -74.44830000
H      -47.13980000     -30.22700000     -73.53520000
C      -42.49510000     -31.11240000     -72.15470000
H      -41.62250000     -31.30370000     -72.74580000
H      -42.52710000     -30.04680000     -72.08220000
S      -48.38690000     -31.88790000     -72.14240000
S      -41.99050000     -31.67170000     -70.46640000
C      -47.43520000     -31.45760000     -70.67390000
H      -46.39310000     -31.18660000     -70.91600000
H      -47.91790000     -30.56390000     -70.32930000
C      -43.69840000     -31.72030000     -69.78510000
H      -44.35710000     -31.72590000     -70.63700000
H      -43.76800000     -30.76640000     -69.25930000
C      -44.10260000     -32.88870000     -68.80310000
H      -43.37420000     -32.91010000     -68.02790000
H      -45.02580000     -32.52830000     -68.30910000
C      -47.45690000     -32.61480000     -69.60720000
H      -48.50690000     -32.78520000     -69.31820000
H      -46.93640000     -32.28020000     -68.74920000
C      -46.96590000     -33.92920000     -70.13260000
C      -47.89470000     -34.83680000     -70.64450000
C      -45.66340000     -34.53980000     -70.04680000
H      -48.89870000     -34.63490000     -71.01610000
C      -45.63200000     -35.85620000     -70.60640000
C      -44.39490000     -34.22990000     -69.40460000
C      -43.49330000     -35.21850000     -69.61680000
S      -47.18170000     -36.26210000     -71.24060000
S      -44.09600000     -36.61210000     -70.44060000
H      -42.42510000     -35.24460000     -69.36470000
