40
Properties=species:S:1:pos:R:3 #=T CELL(abcABC):=T 1.889726e+02=T 90.00000=T Traj:=T positionsangstrom=T Step:=T 0=T Bead:=T pbc="F F F"
C      -43.70250000     -33.33970000     -73.21510000
C      -43.79290000     -32.01820000     -72.80310000
C      -44.95710000     -31.26430000     -72.99930000
C      -46.01050000     -31.90630000     -73.57700000
C      -46.00670000     -33.25710000     -73.94100000
C      -44.80690000     -33.98610000     -73.77460000
H      -42.74870000     -33.87160000     -73.18080000
H      -44.92130000     -30.27830000     -72.61220000
H      -46.91630000     -33.69320000     -74.45480000
H      -44.69730000     -34.98990000     -74.01330000
C      -47.43830000     -31.24570000     -73.59180000
H      -48.05540000     -31.60880000     -74.45540000
H      -47.34950000     -30.19660000     -73.57180000
C      -42.66000000     -31.32660000     -72.07670000
H      -41.81920000     -31.19110000     -72.80530000
H      -42.96170000     -30.32560000     -71.86530000
S      -48.37650000     -31.69920000     -72.09470000
S      -42.22890000     -32.15710000     -70.51820000
C      -47.37960000     -31.35730000     -70.48320000
H      -46.41200000     -31.03150000     -70.79140000
H      -47.89110000     -30.55810000     -69.95420000
C      -43.60590000     -31.71810000     -69.39790000
H      -44.48480000     -31.40840000     -70.00560000
H      -43.26120000     -30.90400000     -68.78320000
C      -43.99300000     -33.01130000     -68.52470000
H      -43.16070000     -33.18720000     -67.74260000
H      -44.85070000     -32.64790000     -68.00650000
C      -47.28520000     -32.51110000     -69.57110000
H      -48.30960000     -32.60360000     -69.20250000
H      -46.59900000     -32.13160000     -68.83400000
C      -46.80130000     -33.81140000     -70.17580000
C      -47.66460000     -34.50050000     -70.93260000
C      -45.54310000     -34.54120000     -69.94120000
H      -48.68640000     -34.19300000     -71.18670000
C      -45.47870000     -35.65710000     -70.74880000
C      -44.24720000     -34.26730000     -69.29670000
C      -43.35450000     -35.21720000     -69.66060000
S      -46.99520000     -36.03730000     -71.47270000
S      -43.93070000     -36.51070000     -70.69340000
H      -42.31700000     -35.20400000     -69.33190000
