40
Properties=species:S:1:pos:R:3 #=T CELL(abcABC):=T 1.889726e+02=T 90.00000=T Traj:=T positionsangstrom=T Step:=T 0=T Bead:=T pbc="F F F"
C      -45.93940000     -37.03750000     -70.37110000
C      -46.34820000     -36.38010000     -71.49050000
C      -47.37910000     -35.41410000     -71.40090000
C      -47.92020000     -35.08040000     -70.16150000
C      -47.50170000     -35.80160000     -69.02140000
C      -46.54420000     -36.79560000     -69.12380000
H      -45.10740000     -37.69060000     -70.40250000
H      -47.80550000     -34.91890000     -72.32060000
H      -47.78230000     -35.47760000     -68.07790000
H      -46.12870000     -37.29750000     -68.22930000
C      -48.98920000     -33.97730000     -69.94210000
H      -48.68240000     -33.31490000     -69.11800000
H      -49.95300000     -34.50780000     -69.83260000
C      -45.95000000     -36.78840000     -72.81730000
H      -46.08500000     -37.82970000     -72.90620000
H      -46.57870000     -36.33520000     -73.54130000
S      -49.23930000     -32.92960000     -71.38740000
S      -44.19180000     -36.48480000     -73.24790000
C      -47.81020000     -31.77590000     -71.62410000
H      -47.83280000     -31.51390000     -72.72340000
H      -47.93960000     -30.76630000     -71.16660000
C      -43.91820000     -34.72730000     -72.90930000
H      -44.81030000     -34.12450000     -73.42340000
H      -42.90340000     -34.42370000     -73.20320000
C      -43.88150000     -34.28590000     -71.47870000
H      -44.94360000     -34.31300000     -71.18180000
H      -43.34020000     -35.02520000     -70.84960000
C      -46.42470000     -32.29390000     -71.27000000
H      -46.35560000     -33.19780000     -71.85660000
H      -46.52690000     -32.71780000     -70.23490000
C      -45.28660000     -31.29670000     -71.36600000
C      -45.39530000     -29.93760000     -71.22830000
C      -43.89260000     -31.74530000     -71.40360000
H      -46.23860000     -29.35810000     -71.43440000
C      -43.01200000     -30.63720000     -71.26980000
C      -43.17980000     -32.96450000     -71.33600000
C      -41.81880000     -32.81400000     -71.19260000
S      -43.83940000     -29.14340000     -71.15260000
S      -41.37910000     -31.15340000     -70.95280000
H      -41.08020000     -33.58750000     -71.09080000
