40
Properties=species:S:1:pos:R:3 #=T CELL(abcABC):=T 1.889726e+02=T 90.00000=T Traj:=T positionsangstrom=T Step:=T 0=T Bead:=T pbc="F F F"
C      -48.15850000     -35.37200000     -70.57620000
C      -48.45980000     -34.39550000     -71.48010000
C      -48.59830000     -33.05840000     -71.04460000
C      -48.52400000     -32.78770000     -69.67600000
C      -48.35270000     -33.82240000     -68.74990000
C      -48.16790000     -35.14880000     -69.17960000
H      -48.15930000     -36.43550000     -70.84730000
H      -48.61340000     -32.22210000     -71.83860000
H      -48.30000000     -33.80620000     -67.65230000
H      -47.92070000     -36.01890000     -68.59460000
C      -48.35510000     -31.39750000     -69.08290000
H      -48.21260000     -31.43300000     -67.99720000
H      -49.16110000     -30.64200000     -69.24540000
C      -48.82640000     -34.67750000     -72.95120000
H      -48.66870000     -35.76970000     -73.15200000
H      -49.80930000     -34.41750000     -73.28170000
S      -46.89010000     -30.55720000     -69.92220000
S      -47.56910000     -33.84960000     -74.19550000
C      -45.59430000     -31.78450000     -69.75780000
H      -45.25170000     -31.97320000     -68.72550000
H      -45.94790000     -32.73190000     -70.10870000
C      -45.94130000     -34.67390000     -73.89230000
H      -45.38210000     -34.46920000     -74.82540000
H      -46.04870000     -35.73800000     -73.74520000
C      -45.34170000     -34.00070000     -72.65940000
H      -45.36230000     -32.87790000     -72.82960000
H      -45.91420000     -34.23890000     -71.78980000
C      -44.48740000     -31.29250000     -70.75480000
H      -44.29420000     -30.30630000     -70.40770000
H      -44.91340000     -31.24000000     -71.73910000
C      -43.22460000     -32.15960000     -70.84320000
C      -42.01980000     -31.70290000     -70.30430000
C      -43.06940000     -33.43100000     -71.55070000
H      -41.91090000     -30.87260000     -69.59850000
C      -41.77530000     -33.90420000     -71.46990000
C      -43.88760000     -34.30430000     -72.36430000
C      -43.10010000     -35.29630000     -72.91810000
S      -40.78040000     -32.91490000     -70.41700000
S      -41.42330000     -35.31770000     -72.31390000
H      -43.51070000     -36.02810000     -73.59140000
