40
Properties=species:S:1:pos:R:3 #=T CELL(abcABC):=T 1.889726e+02=T 90.00000=T Traj:=T positionsangstrom=T Step:=T 0=T Bead:=T pbc="F F F"
C      -48.31700000     -35.78700000     -70.71530000
C      -48.45300000     -34.76010000     -71.69500000
C      -48.42510000     -33.38110000     -71.17100000
C      -48.29360000     -33.11200000     -69.85820000
C      -48.32600000     -34.15560000     -68.94690000
C      -48.31440000     -35.50140000     -69.35480000
H      -48.34670000     -36.84280000     -71.07280000
H      -48.54040000     -32.58060000     -71.86550000
H      -48.37270000     -33.86240000     -67.92380000
H      -48.19570000     -36.20890000     -68.50380000
C      -48.35000000     -31.70320000     -69.37540000
H      -48.89300000     -31.59240000     -68.46910000
H      -48.95360000     -31.12530000     -70.05190000
C      -48.75230000     -34.96950000     -73.15580000
H      -48.46200000     -35.98200000     -73.44460000
H      -49.75180000     -34.77020000     -73.47790000
S      -46.71250000     -30.72970000     -69.13660000
S      -47.74840000     -33.88920000     -74.29410000
C      -45.19360000     -31.76890000     -69.55950000
H      -44.62940000     -31.72470000     -68.61560000
H      -45.38980000     -32.85480000     -69.77820000
C      -45.99330000     -34.23600000     -73.92280000
H      -45.42600000     -34.21930000     -74.88750000
H      -45.88210000     -35.28470000     -73.52200000
C      -45.28200000     -33.23210000     -72.93310000
H      -45.36430000     -32.22060000     -73.31730000
H      -45.93770000     -33.26350000     -72.09500000
C      -44.45300000     -31.11930000     -70.72050000
H      -44.31500000     -30.09540000     -70.50630000
H      -45.12470000     -31.15810000     -71.57030000
C      -43.13150000     -31.85130000     -70.91760000
C      -41.91620000     -31.64110000     -70.22440000
C      -43.02940000     -33.08880000     -71.66580000
H      -41.63640000     -30.76890000     -69.62590000
C      -41.80850000     -33.77540000     -71.44710000
C      -43.91350000     -33.75990000     -72.57900000
C      -43.33250000     -34.97040000     -72.91340000
S      -40.74090000     -32.94930000     -70.36640000
S      -41.69970000     -35.25210000     -72.26250000
H      -43.71450000     -35.63910000     -73.70290000
