40
Properties=species:S:1:pos:R:3 #=T CELL(abcABC):=T 1.889726e+02=T 90.00000=T Traj:=T positionsangstrom=T Step:=T 0=T Bead:=T pbc="F F F"
C      -48.38750000     -35.55900000     -70.59150000
C      -48.35640000     -34.48760000     -71.53520000
C      -48.36700000     -33.21630000     -71.03670000
C      -48.29090000     -32.92230000     -69.63890000
C      -48.30240000     -34.01490000     -68.70930000
C      -48.34540000     -35.28430000     -69.17220000
H      -48.42260000     -36.60160000     -70.80920000
H      -48.47340000     -32.27660000     -71.78950000
H      -48.25460000     -33.86210000     -67.64770000
H      -48.27060000     -36.11810000     -68.52890000
C      -48.41330000     -31.47550000     -69.14700000
H      -48.46980000     -31.60770000     -68.07420000
H      -49.21040000     -30.90220000     -69.59260000
C      -48.59650000     -34.77330000     -72.99070000
H      -48.47300000     -35.86020000     -73.16610000
H      -49.64250000     -34.52930000     -73.07060000
S      -46.88490000     -30.48180000     -69.45060000
S      -47.70800000     -33.88960000     -74.28080000
C      -45.52710000     -31.70140000     -69.99920000
H      -45.01180000     -31.89890000     -69.04350000
H      -46.00750000     -32.64100000     -70.25480000
C      -45.94040000     -34.48630000     -74.00970000
H      -45.40890000     -34.33310000     -74.97050000
H      -45.90900000     -35.55910000     -73.72700000
C      -45.24440000     -33.72000000     -72.83340000
H      -45.30350000     -32.66150000     -72.97760000
H      -45.92260000     -33.86380000     -71.97250000
C      -44.44110000     -31.10030000     -70.92920000
H      -44.01800000     -30.13980000     -70.56980000
H      -44.79820000     -30.88650000     -71.92910000
C      -43.26110000     -32.09690000     -70.89250000
C      -42.17510000     -31.78120000     -70.08860000
C      -42.97610000     -33.32310000     -71.69310000
H      -42.12020000     -30.94810000     -69.41370000
C      -41.71970000     -33.88600000     -71.49990000
C      -43.84360000     -34.11750000     -72.52030000
C      -43.20040000     -35.24050000     -72.91060000
S      -40.74200000     -32.82290000     -70.39020000
S      -41.51350000     -35.47080000     -72.33980000
H      -43.68070000     -35.98910000     -73.51800000
