40
Properties=species:S:1:pos:R:3 #=T CELL(abcABC):=T 1.889726e+02=T 90.00000=T Traj:=T positionsangstrom=T Step:=T 0=T Bead:=T pbc="F F F"
C      -45.97190000     -37.12910000     -70.53210000
C      -46.59440000     -36.58950000     -71.67060000
C      -47.69870000     -35.68920000     -71.45120000
C      -48.05160000     -35.30260000     -70.18950000
C      -47.46520000     -35.84770000     -69.03940000
C      -46.40910000     -36.76910000     -69.22870000
H      -45.13590000     -37.80760000     -70.67310000
H      -48.28960000     -35.30830000     -72.28440000
H      -47.66500000     -35.44110000     -68.06100000
H      -45.91530000     -37.13210000     -68.32020000
C      -49.02360000     -34.12490000     -70.01080000
H      -48.68810000     -33.64780000     -69.14290000
H      -50.00550000     -34.47960000     -69.74050000
C      -46.04040000     -36.90360000     -73.01060000
H      -46.11850000     -37.98190000     -73.26080000
H      -46.61830000     -36.31220000     -73.74760000
S      -49.07440000     -32.84910000     -71.34880000
S      -44.29100000     -36.45950000     -73.22290000
C      -47.73440000     -31.68900000     -70.95730000
H      -48.03010000     -30.68160000     -71.36870000
H      -47.69270000     -31.73110000     -69.87770000
C      -44.26580000     -34.62590000     -72.98700000
H      -45.23800000     -34.08900000     -73.18730000
H      -43.41700000     -34.11250000     -73.56330000
C      -43.81500000     -34.30460000     -71.46980000
H      -44.77280000     -34.24540000     -70.93450000
H      -43.15110000     -35.04970000     -71.05250000
C      -46.44080000     -32.15360000     -71.74550000
H      -46.69260000     -32.27160000     -72.76990000
H      -46.27320000     -33.16030000     -71.43410000
C      -45.23250000     -31.20450000     -71.50380000
C      -45.28700000     -29.82000000     -71.40920000
C      -43.82560000     -31.65090000     -71.45340000
H      -46.16480000     -29.22960000     -71.78410000
C      -42.95220000     -30.63360000     -71.14840000
C      -43.14210000     -32.95650000     -71.32170000
C      -41.78200000     -32.84760000     -71.07960000
S      -43.76100000     -29.09350000     -70.94210000
S      -41.29160000     -31.12650000     -70.90330000
H      -41.15390000     -33.70750000     -71.13610000
