40
Properties=species:S:1:pos:R:3 #=T CELL(abcABC):=T 1.889726e+02=T 90.00000=T Traj:=T positionsangstrom=T Step:=T 0=T Bead:=T pbc="F F F"
C      -48.67020000     -35.24030000     -71.26610000
C      -48.64800000     -34.13620000     -72.06940000
C      -48.69330000     -32.81540000     -71.58150000
C      -48.48400000     -32.65720000     -70.22510000
C      -48.39920000     -33.78340000     -69.36880000
C      -48.46440000     -35.08260000     -69.88110000
H      -48.68460000     -36.25040000     -71.74900000
H      -48.76490000     -31.96800000     -72.24680000
H      -47.92140000     -33.64560000     -68.37310000
H      -48.15310000     -35.90190000     -69.26240000
C      -48.25500000     -31.33430000     -69.56120000
H      -47.96220000     -31.48800000     -68.45690000
H      -49.15630000     -30.67990000     -69.51330000
C      -48.65300000     -34.20490000     -73.57450000
H      -48.61470000     -35.22020000     -73.89670000
H      -49.42900000     -33.60740000     -74.05430000
S      -47.01790000     -30.40990000     -70.44950000
S      -47.17970000     -33.40620000     -74.30070000
C      -45.41410000     -31.14380000     -69.72200000
H      -44.95130000     -30.50290000     -68.91460000
H      -45.75220000     -32.04400000     -69.26500000
C      -45.86530000     -34.16160000     -73.10920000
H      -46.00920000     -35.27870000     -73.13210000
H      -45.93790000     -33.73380000     -72.09710000
C      -44.37120000     -33.80130000     -73.50190000
H      -44.13120000     -34.31300000     -74.41640000
H      -44.24960000     -32.80350000     -73.79380000
C      -44.52280000     -31.45940000     -70.95050000
H      -44.32220000     -30.49500000     -71.47320000
H      -45.17230000     -32.01350000     -71.61810000
C      -43.29370000     -32.39360000     -70.61530000
C      -42.45020000     -32.17170000     -69.59450000
C      -42.99670000     -33.65240000     -71.25230000
H      -42.54250000     -31.46650000     -68.78070000
C      -41.86190000     -34.31720000     -70.73400000
C      -43.41270000     -34.25270000     -72.47730000
C      -42.73230000     -35.40570000     -72.78980000
S      -41.24740000     -33.53230000     -69.30290000
S      -41.56370000     -35.85520000     -71.51670000
H      -42.92650000     -36.10780000     -73.63380000
