40
Properties=species:S:1:pos:R:3 #=T CELL(abcABC):=T 1.889726e+02=T 90.00000=T Traj:=T positionsangstrom=T Step:=T 0=T Bead:=T pbc="F F F"
C      -48.40520000     -35.49200000     -71.03340000
C      -48.62040000     -34.41980000     -71.86170000
C      -48.51230000     -33.12850000     -71.29910000
C      -48.10150000     -32.89400000     -69.99160000
C      -47.97450000     -34.05890000     -69.19090000
C      -48.04530000     -35.33390000     -69.66110000
H      -48.48310000     -36.50970000     -71.48050000
H      -48.67220000     -32.13810000     -71.84050000
H      -47.74230000     -34.01230000     -68.11450000
H      -48.03160000     -36.18850000     -68.93410000
C      -47.85320000     -31.54600000     -69.42340000
H      -48.76730000     -31.10840000     -69.01720000
H      -47.64200000     -30.77740000     -70.22190000
C      -48.91380000     -34.81580000     -73.28880000
H      -49.06890000     -35.89590000     -73.43720000
H      -49.84860000     -34.20830000     -73.66520000
S      -46.75880000     -31.29870000     -67.95130000
S      -47.73040000     -34.17970000     -74.55770000
C      -45.03690000     -31.88370000     -68.43080000
H      -44.27830000     -31.12780000     -68.05640000
H      -44.80970000     -32.75110000     -67.81560000
C      -46.01070000     -34.58460000     -73.97280000
H      -45.39290000     -34.41530000     -74.83200000
H      -45.83910000     -35.66030000     -73.68440000
C      -45.42720000     -33.76870000     -72.80010000
H      -45.50460000     -32.76010000     -73.13310000
H      -46.06530000     -33.94350000     -71.98290000
C      -44.87020000     -32.12200000     -69.93850000
H      -45.45790000     -31.32750000     -70.54150000
H      -45.48030000     -33.01240000     -70.06600000
C      -43.45430000     -32.33340000     -70.47790000
C      -42.29610000     -31.98970000     -69.83360000
C      -43.20660000     -33.16500000     -71.67260000
H      -42.14820000     -31.36210000     -68.89950000
C      -41.87440000     -33.32920000     -71.88700000
C      -43.96420000     -34.04720000     -72.55420000
C      -43.13140000     -34.81180000     -73.34090000
S      -40.87690000     -32.39350000     -70.76800000
S      -41.39120000     -34.52540000     -73.05200000
H      -43.35890000     -35.58430000     -74.05870000
