40
Properties=species:S:1:pos:R:3 #=T CELL(abcABC):=T 1.889726e+02=T 90.00000=T Traj:=T positionsangstrom=T Step:=T 0=T Bead:=T pbc="F F F"
C      -44.70420000     -37.47100000     -71.30670000
C      -45.79650000     -36.87610000     -71.89270000
C      -46.76450000     -36.29280000     -71.08960000
C      -46.68450000     -36.31320000     -69.68700000
C      -45.50250000     -36.79980000     -69.13210000
C      -44.56610000     -37.39280000     -69.92720000
H      -44.02660000     -38.03680000     -71.93290000
H      -47.57210000     -35.80400000     -71.66350000
H      -45.31840000     -36.88530000     -68.08630000
H      -43.80390000     -37.99130000     -69.37680000
C      -47.76170000     -35.68120000     -68.85810000
H      -47.45690000     -35.70180000     -67.80790000
H      -48.56840000     -36.39960000     -68.96720000
C      -45.94730000     -36.75710000     -73.35650000
H      -45.74370000     -37.72740000     -73.89740000
H      -46.99310000     -36.42290000     -73.58790000
S      -48.41400000     -34.06830000     -69.38810000
S      -44.77690000     -35.51590000     -74.25530000
C      -46.78170000     -33.25360000     -69.97130000
H      -46.39050000     -32.92440000     -69.00070000
H      -46.12370000     -33.92660000     -70.51810000
C      -44.96990000     -33.88790000     -73.40780000
H      -46.00910000     -33.85210000     -73.01610000
H      -44.82330000     -33.13090000     -74.27610000
C      -43.89670000     -33.65760000     -72.26400000
H      -44.11460000     -34.26960000     -71.44000000
H      -42.99190000     -34.15730000     -72.63780000
C      -47.09790000     -32.17940000     -71.01990000
H      -48.10340000     -31.70270000     -70.85830000
H      -47.15590000     -32.69150000     -71.93810000
C      -45.96900000     -31.13750000     -71.12110000
C      -46.31770000     -29.80570000     -70.77150000
C      -44.61210000     -31.20030000     -71.52980000
H      -47.13160000     -29.41450000     -70.11170000
C      -43.92790000     -30.00520000     -71.44680000
C      -43.64970000     -32.20840000     -71.92070000
C      -42.30900000     -31.80410000     -71.95390000
S      -44.94400000     -28.67580000     -70.97900000
S      -42.18700000     -30.11810000     -71.65700000
H      -41.42910000     -32.37660000     -72.26350000
