40
Properties=species:S:1:pos:R:3 #=T CELL(abcABC):=T 1.889726e+02=T 90.00000=T Traj:=T positionsangstrom=T Step:=T 0=T Bead:=T pbc="F F F"
C      -48.04130000     -35.57190000     -70.99850000
C      -48.52280000     -34.48400000     -71.85300000
C      -48.42330000     -33.20730000     -71.29440000
C      -48.18440000     -32.93950000     -69.94900000
C      -47.94490000     -34.08890000     -69.16010000
C      -47.90750000     -35.41960000     -69.64590000
H      -48.20290000     -36.58720000     -71.43280000
H      -48.70220000     -32.41400000     -71.96460000
H      -47.94010000     -34.00110000     -68.10440000
H      -47.50600000     -36.23090000     -69.05840000
C      -48.24940000     -31.60130000     -69.25410000
H      -49.02880000     -31.66140000     -68.48880000
H      -48.39940000     -30.77690000     -69.97440000
C      -48.91610000     -34.68140000     -73.28650000
H      -48.77320000     -35.80590000     -73.36750000
H      -49.95330000     -34.44090000     -73.52190000
S      -46.75260000     -31.19170000     -68.25260000
S      -47.68620000     -33.87390000     -74.31430000
C      -45.37740000     -32.10390000     -69.05630000
H      -44.53770000     -32.12530000     -68.34720000
H      -45.79480000     -33.10680000     -69.25100000
C      -46.10750000     -34.67420000     -73.78410000
H      -45.46860000     -34.68120000     -74.66960000
H      -46.20340000     -35.70800000     -73.47030000
C      -45.35860000     -33.86000000     -72.79080000
H      -45.67160000     -32.80140000     -72.98920000
H      -45.74040000     -33.95510000     -71.74740000
C      -44.75720000     -31.52210000     -70.34450000
H      -44.61140000     -30.45770000     -70.23120000
H      -45.49840000     -31.64890000     -71.17840000
C      -43.47240000     -32.18990000     -70.73060000
C      -42.37220000     -31.82610000     -69.94790000
C      -43.16440000     -33.23600000     -71.70950000
H      -42.31290000     -31.07110000     -69.16570000
C      -41.80760000     -33.50930000     -71.71320000
C      -43.85930000     -34.02350000     -72.62260000
C      -43.06920000     -34.73720000     -73.50370000
S      -40.93380000     -32.76150000     -70.42010000
S      -41.40950000     -34.58900000     -72.92410000
H      -43.40100000     -35.29030000     -74.35860000
