40
Properties=species:S:1:pos:R:3 #=T CELL(abcABC):=T 1.889726e+02=T 90.00000=T Traj:=T positionsangstrom=T Step:=T 0=T Bead:=T pbc="F F F"
C      -48.12010000     -32.87920000     -74.82130000
C      -47.23480000     -32.08500000     -74.10200000
C      -47.50970000     -31.82430000     -72.71980000
C      -48.67980000     -32.29420000     -72.11960000
C      -49.56400000     -33.15920000     -72.89090000
C      -49.32490000     -33.42560000     -74.21650000
H      -47.93260000     -33.04290000     -75.93820000
H      -46.72840000     -31.28930000     -72.18640000
H      -50.42970000     -33.65350000     -72.44090000
H      -49.93660000     -34.11730000     -74.75190000
C      -49.01410000     -32.09360000     -70.64540000
H      -50.09700000     -31.93560000     -70.42620000
H      -48.50820000     -31.21820000     -70.30080000
C      -46.02350000     -31.62930000     -74.78470000
H      -45.52310000     -32.51380000     -75.20980000
H      -46.41130000     -31.04730000     -75.59220000
S      -48.44120000     -33.49730000     -69.48660000
S      -44.74760000     -30.84850000     -73.74560000
C      -46.57010000     -33.44810000     -69.43780000
H      -46.20000000     -32.42340000     -69.71020000
H      -46.26390000     -33.63480000     -68.40730000
C      -44.23330000     -32.30490000     -72.77830000
H      -43.40170000     -32.90870000     -73.25700000
H      -45.22060000     -32.77270000     -72.59430000
C      -43.75030000     -31.82570000     -71.34890000
H      -43.12670000     -30.89070000     -71.33880000
H      -44.63460000     -31.56340000     -70.78220000
C      -46.09460000     -34.47540000     -70.40780000
H      -46.10310000     -33.98920000     -71.42280000
H      -46.80170000     -35.34260000     -70.47100000
C      -44.66650000     -34.98280000     -70.12340000
C      -44.48220000     -36.20840000     -69.57300000
C      -43.46530000     -34.23350000     -70.18520000
H      -45.27890000     -36.88130000     -69.23990000
C      -42.42090000     -34.98460000     -69.67030000
C      -42.92760000     -32.89910000     -70.61210000
C      -41.56870000     -32.74320000     -70.24660000
S      -42.86140000     -36.56410000     -69.24490000
S      -40.82170000     -34.18850000     -69.63620000
H      -40.92070000     -31.84520000     -70.36670000
