40
Properties=species:S:1:pos:R:3 #=T CELL(abcABC):=T 1.889726e+02=T 90.00000=T Traj:=T positionsangstrom=T Step:=T 0=T Bead:=T pbc="F F F"
C      -43.93520000     -37.20510000     -71.72970000
C      -45.25460000     -36.68270000     -71.76310000
C      -45.89290000     -36.19610000     -70.63460000
C      -45.28580000     -36.27260000     -69.36570000
C      -44.00300000     -36.77280000     -69.30030000
C      -43.29340000     -37.21470000     -70.47170000
H      -43.45870000     -37.48500000     -72.64230000
H      -46.88010000     -35.83860000     -70.68990000
H      -43.57320000     -36.87480000     -68.29320000
H      -42.32130000     -37.62290000     -70.42540000
C      -45.94560000     -35.92860000     -68.08230000
H      -45.18530000     -35.43050000     -67.43640000
H      -46.31630000     -36.83360000     -67.56790000
C      -46.06720000     -36.67840000     -73.06040000
H      -46.17940000     -37.64240000     -73.54870000
H      -47.08100000     -36.31570000     -72.86670000
S      -47.38360000     -34.71840000     -68.38660000
S      -45.30150000     -35.64970000     -74.36170000
C      -46.44130000     -33.22900000     -68.98700000
H      -46.82110000     -32.34070000     -68.39450000
H      -45.35450000     -33.40420000     -68.87510000
C      -45.42800000     -33.91700000     -73.75200000
H      -46.35380000     -33.84080000     -73.17630000
H      -45.51500000     -33.39620000     -74.70240000
C      -44.26410000     -33.35210000     -72.98550000
H      -44.26000000     -33.83060000     -71.99010000
H      -43.34160000     -33.61630000     -73.53360000
C      -46.70800000     -32.91270000     -70.47370000
H      -47.71410000     -33.07130000     -70.87510000
H      -46.08890000     -33.66530000     -71.10920000
C      -46.19590000     -31.54920000     -70.84570000
C      -46.67610000     -30.44120000     -70.14540000
C      -45.16250000     -31.21080000     -71.79060000
H      -47.39170000     -30.43670000     -69.27620000
C      -44.89690000     -29.87460000     -71.76550000
C      -44.32230000     -31.79060000     -72.80260000
C      -43.49810000     -30.90830000     -73.44300000
S      -45.74500000     -28.94710000     -70.53980000
S      -43.61130000     -29.30230000     -72.76870000
H      -42.73520000     -31.15110000     -74.21760000
