40
Properties=species:S:1:pos:R:3 #=T CELL(abcABC):=T 1.889726e+02=T 90.00000=T Traj:=T positionsangstrom=T Step:=T 0=T Bead:=T pbc="F F F"
C      -48.72240000     -35.17660000     -70.88840000
C      -48.67380000     -33.84140000     -71.47740000
C      -48.38560000     -32.79890000     -70.59250000
C      -48.40560000     -33.01470000     -69.17980000
C      -48.53920000     -34.27120000     -68.58750000
C      -48.66460000     -35.36960000     -69.52700000
H      -48.68430000     -36.01400000     -71.59440000
H      -48.35410000     -31.74670000     -70.95710000
H      -48.66460000     -34.50880000     -67.53950000
H      -48.85670000     -36.39190000     -69.16170000
C      -48.12280000     -31.80420000     -68.32430000
H      -48.46030000     -32.03250000     -67.33810000
H      -48.58370000     -30.90570000     -68.73070000
C      -48.68630000     -33.61760000     -72.93630000
H      -49.01950000     -34.49950000     -73.41290000
H      -49.31440000     -32.87750000     -73.24690000
S      -46.23350000     -31.41150000     -68.10760000
S      -46.92010000     -33.19970000     -73.64450000
C      -45.59920000     -31.57000000     -69.78300000
H      -46.35570000     -31.26330000     -70.54110000
H      -44.86700000     -30.84520000     -70.09340000
C      -46.14000000     -34.91160000     -73.88550000
H      -45.52110000     -34.77030000     -74.70860000
H      -46.93340000     -35.63060000     -74.16750000
C      -45.21000000     -35.32710000     -72.70180000
H      -45.70800000     -35.15620000     -71.77180000
H      -44.97020000     -36.46040000     -72.76910000
C      -45.05060000     -32.98990000     -70.23080000
H      -45.78340000     -33.26430000     -71.07970000
H      -45.19880000     -33.69690000     -69.43230000
C      -43.65640000     -32.98910000     -70.73830000
C      -42.70080000     -32.03160000     -70.34560000
C      -43.11810000     -33.82400000     -71.83510000
H      -42.65560000     -31.34490000     -69.53840000
C      -41.81540000     -33.58180000     -72.10840000
C      -43.76100000     -34.72860000     -72.78250000
C      -42.92160000     -35.01250000     -73.86100000
S      -41.16190000     -32.27000000     -71.16820000
S      -41.37290000     -34.20580000     -73.70590000
H      -43.18030000     -35.69950000     -74.65060000
