40
Properties=species:S:1:pos:R:3 #=T CELL(abcABC):=T 1.889726e+02=T 90.00000=T Traj:=T positionsangstrom=T Step:=T 0=T Bead:=T pbc="F F F"
C      -43.70110000     -30.33480000     -73.60210000
C      -44.40570000     -30.28800000     -72.34940000
C      -45.74210000     -30.65520000     -72.21730000
C      -46.40570000     -31.00810000     -73.38860000
C      -45.77950000     -30.83340000     -74.64120000
C      -44.38850000     -30.66090000     -74.77900000
H      -42.69940000     -29.94490000     -73.70110000
H      -46.19000000     -30.64800000     -71.24270000
H      -46.36800000     -31.02700000     -75.44920000
H      -43.95280000     -30.49800000     -75.77020000
C      -47.83360000     -31.61640000     -73.47520000
H      -48.46410000     -30.91640000     -74.05670000
H      -48.35030000     -31.83160000     -72.50520000
C      -43.57790000     -29.90810000     -71.13660000
H      -43.33090000     -28.86930000     -71.32460000
H      -44.17490000     -29.89550000     -70.20730000
S      -47.96590000     -33.25500000     -74.35640000
S      -42.06160000     -30.98460000     -70.92610000
C      -47.82870000     -34.48810000     -72.92340000
H      -48.54030000     -34.24990000     -72.14300000
H      -47.99800000     -35.53450000     -73.30730000
C      -42.69060000     -32.37080000     -69.92720000
H      -42.99190000     -32.06770000     -68.93630000
H      -41.79550000     -33.05490000     -69.82610000
C      -43.90960000     -33.15180000     -70.55740000
H      -44.70980000     -32.38390000     -70.47890000
H      -43.70020000     -33.21620000     -71.64270000
C      -46.54140000     -34.30490000     -72.14020000
H      -46.22550000     -33.25820000     -71.98020000
H      -45.60710000     -34.54840000     -72.65880000
C      -46.50220000     -35.09760000     -70.83040000
C      -47.43980000     -36.10060000     -70.57050000
C      -45.37900000     -35.13530000     -69.92290000
H      -48.37420000     -36.14180000     -71.17250000
C      -45.54130000     -36.22200000     -69.08270000
C      -44.16160000     -34.40100000     -69.78710000
C      -43.45260000     -34.90710000     -68.73710000
S      -47.11140000     -37.01210000     -69.08290000
S      -44.16770000     -36.36190000     -67.97000000
H      -42.52650000     -34.60580000     -68.30160000
