40
Properties=species:S:1:pos:R:3 #=T CELL(abcABC):=T 1.889726e+02=T 90.00000=T Traj:=T positionsangstrom=T Step:=T 0=T Bead:=T pbc="F F F"
C      -44.53910000     -37.25840000     -71.36320000
C      -45.75840000     -36.73240000     -71.88650000
C      -46.73160000     -36.35160000     -71.00140000
C      -46.56670000     -36.41350000     -69.60270000
C      -45.40930000     -37.00950000     -69.11100000
C      -44.32700000     -37.38110000     -70.01010000
H      -43.64280000     -37.37570000     -71.99030000
H      -47.66370000     -35.93130000     -71.35980000
H      -45.13120000     -37.01990000     -68.08280000
H      -43.31060000     -37.57780000     -69.58690000
C      -47.55120000     -35.73200000     -68.66120000
H      -47.02050000     -35.56780000     -67.71910000
H      -48.40460000     -36.37230000     -68.34910000
C      -46.07930000     -36.69160000     -73.31150000
H      -45.77540000     -37.69790000     -73.58230000
H      -47.12430000     -36.56850000     -73.51310000
S      -48.15020000     -34.19740000     -69.38980000
S      -45.11290000     -35.55570000     -74.34160000
C      -46.73040000     -33.17650000     -69.85870000
H      -46.39230000     -32.49730000     -69.05200000
H      -45.75990000     -33.68640000     -70.03390000
C      -45.03440000     -33.88000000     -73.41080000
H      -46.02070000     -33.89350000     -72.98450000
H      -45.07280000     -33.15160000     -74.15580000
C      -43.89710000     -33.65670000     -72.34040000
H      -44.25930000     -34.22360000     -71.46670000
H      -42.92400000     -34.17720000     -72.58660000
C      -47.04170000     -32.24600000     -71.05840000
H      -47.99670000     -31.67460000     -70.97680000
H      -47.27150000     -32.93170000     -71.91910000
C      -46.05620000     -31.14810000     -71.28050000
C      -46.39930000     -29.80810000     -70.94130000
C      -44.58790000     -31.22210000     -71.48860000
H      -47.41510000     -29.50690000     -70.54380000
C      -43.98410000     -29.98270000     -71.31520000
C      -43.66540000     -32.22070000     -72.06330000
C      -42.36560000     -31.70470000     -72.13770000
S      -45.03930000     -28.71550000     -70.85950000
S      -42.25650000     -29.99410000     -71.64960000
H      -41.39960000     -32.15580000     -72.50040000
