40
Properties=species:S:1:pos:R:3 #=T CELL(abcABC):=T 1.889726e+02=T 90.00000=T Traj:=T positionsangstrom=T Step:=T 0=T Bead:=T pbc="F F F"
C      -48.19260000     -32.81780000     -74.57900000
C      -47.25420000     -31.99690000     -73.96500000
C      -47.38690000     -31.67220000     -72.64460000
C      -48.42410000     -32.28960000     -71.90260000
C      -49.33130000     -33.15450000     -72.48800000
C      -49.28950000     -33.35750000     -73.89910000
H      -47.99140000     -32.89850000     -75.64490000
H      -46.79740000     -30.79510000     -72.32790000
H      -50.14650000     -33.60370000     -71.93800000
H      -49.99210000     -33.97840000     -74.41390000
C      -48.49250000     -32.04630000     -70.38640000
H      -49.53250000     -31.63500000     -70.08210000
H      -47.70200000     -31.34780000     -70.08160000
C      -46.08880000     -31.63230000     -74.78050000
H      -45.67430000     -32.49310000     -75.36150000
H      -46.32960000     -30.89810000     -75.53900000
S      -48.48700000     -33.63540000     -69.43100000
S      -44.69660000     -30.77780000     -73.94550000
C      -46.69360000     -33.97630000     -69.27990000
H      -46.04740000     -33.13120000     -68.97700000
H      -46.50380000     -34.73680000     -68.54840000
C      -43.99680000     -32.17760000     -72.94790000
H      -43.20990000     -32.65740000     -73.43890000
H      -44.81050000     -32.96800000     -72.98990000
C      -43.83060000     -31.79650000     -71.39930000
H      -43.38410000     -30.82530000     -71.20650000
H      -44.85900000     -31.69170000     -70.97040000
C      -46.13540000     -34.57200000     -70.64150000
H      -46.04820000     -33.73950000     -71.29710000
H      -46.77420000     -35.32720000     -71.03510000
C      -44.71370000     -35.05040000     -70.44960000
C      -44.55500000     -36.29010000     -69.87590000
C      -43.50330000     -34.25630000     -70.40330000
H      -45.33600000     -37.06580000     -69.87930000
C      -42.50690000     -34.96540000     -69.75740000
C      -43.06080000     -32.82100000     -70.63910000
C      -41.72830000     -32.66600000     -70.32680000
S      -42.89910000     -36.54520000     -69.29200000
S      -41.00250000     -34.10880000     -69.56450000
H      -41.15110000     -31.76200000     -70.68160000
