40
Properties=species:S:1:pos:R:3 #=T CELL(abcABC):=T 1.889726e+02=T 90.00000=T Traj:=T positionsangstrom=T Step:=T 0=T Bead:=T pbc="F F F"
C      -48.22120000     -32.81530000     -74.59350000
C      -47.24540000     -31.99630000     -74.04800000
C      -47.29000000     -31.81540000     -72.63640000
C      -48.36030000     -32.27920000     -71.87730000
C      -49.38050000     -32.99620000     -72.48730000
C      -49.28370000     -33.36770000     -73.83260000
H      -48.07730000     -33.13190000     -75.67420000
H      -46.39630000     -31.28810000     -72.27130000
H      -50.15270000     -33.36550000     -71.80420000
H      -49.96770000     -34.04250000     -74.28500000
C      -48.43700000     -31.97930000     -70.37100000
H      -49.35160000     -31.46880000     -70.14450000
H      -47.62620000     -31.41150000     -70.04890000
C      -46.13270000     -31.45680000     -74.84960000
H      -45.82640000     -32.22140000     -75.54050000
H      -46.51360000     -30.61100000     -75.44650000
S      -48.55920000     -33.55280000     -69.40270000
S      -44.71980000     -30.77070000     -73.83510000
C      -46.72730000     -33.96810000     -69.39620000
H      -46.20970000     -33.00570000     -69.15320000
H      -46.72980000     -34.53750000     -68.47050000
C      -44.00790000     -32.22130000     -72.92540000
H      -42.93370000     -32.36800000     -73.18830000
H      -44.59140000     -33.13600000     -73.22280000
C      -43.96660000     -31.92180000     -71.36240000
H      -43.48430000     -30.92420000     -71.31790000
H      -44.95830000     -31.92070000     -70.95060000
C      -46.13900000     -34.61100000     -70.64410000
H      -46.00430000     -33.87460000     -71.47820000
H      -46.85440000     -35.37490000     -71.02820000
C      -44.69890000     -35.10720000     -70.35210000
C      -44.49680000     -36.34270000     -69.86120000
C      -43.56160000     -34.28490000     -70.18280000
H      -45.25380000     -37.11480000     -70.01070000
C      -42.44320000     -34.96310000     -69.65290000
C      -43.16500000     -32.96780000     -70.63740000
C      -41.82470000     -32.69870000     -70.44740000
S      -42.79370000     -36.69120000     -69.40930000
S      -40.94110000     -33.95780000     -69.66050000
H      -41.27470000     -31.74380000     -70.48440000
