40
Properties=species:S:1:pos:R:3 #=T CELL(abcABC):=T 1.889726e+02=T 90.00000=T Traj:=T positionsangstrom=T Step:=T 0=T Bead:=T pbc="F F F"
C      -48.18710000     -32.84530000     -74.63100000
C      -47.29000000     -31.96820000     -73.96240000
C      -47.54010000     -31.64520000     -72.59870000
C      -48.58230000     -32.24490000     -71.89270000
C      -49.53610000     -32.97930000     -72.62190000
C      -49.31260000     -33.31800000     -73.95480000
H      -48.00450000     -33.02540000     -75.71070000
H      -46.85910000     -30.99150000     -72.01710000
H      -50.38590000     -33.36840000     -72.07330000
H      -50.00800000     -33.92750000     -74.57690000
C      -48.67150000     -32.03370000     -70.43900000
H      -49.60130000     -31.57740000     -70.06110000
H      -47.89690000     -31.23110000     -70.12590000
C      -46.05020000     -31.45780000     -74.73060000
H      -45.63830000     -32.40210000     -75.17990000
H      -46.21690000     -30.76330000     -75.58980000
S      -48.42680000     -33.53210000     -69.37470000
S      -44.63160000     -30.72590000     -73.81800000
C      -46.63590000     -34.10440000     -69.24030000
H      -45.97850000     -33.32530000     -68.88410000
H      -46.58820000     -34.90960000     -68.52570000
C      -44.06640000     -32.14920000     -72.84970000
H      -42.99550000     -32.31890000     -73.08780000
H      -44.55670000     -33.00920000     -73.15460000
C      -44.18220000     -32.00820000     -71.32580000
H      -43.89900000     -30.96810000     -71.03560000
H      -45.16970000     -32.13550000     -70.90640000
C      -46.10730000     -34.74420000     -70.52250000
H      -46.21080000     -34.01820000     -71.32740000
H      -46.75190000     -35.59250000     -70.73220000
C      -44.67950000     -35.23390000     -70.37300000
C      -44.33360000     -36.40390000     -69.87430000
C      -43.49920000     -34.37570000     -70.32700000
H      -45.03620000     -37.24070000     -69.65740000
C      -42.29410000     -35.03360000     -69.94110000
C      -43.24350000     -32.94180000     -70.60880000
C      -41.99340000     -32.55400000     -70.29900000
S      -42.64360000     -36.63930000     -69.39270000
S      -40.96520000     -33.95630000     -69.75990000
H      -41.62430000     -31.55300000     -70.26060000
