40
Properties=species:S:1:pos:R:3 #=T CELL(abcABC):=T 1.889726e+02=T 90.00000=T Traj:=T positionsangstrom=T Step:=T 0=T Bead:=T pbc="F F F"
C      -43.43150000     -36.74430000     -71.71800000
C      -44.82660000     -36.66320000     -71.88950000
C      -45.60350000     -36.55170000     -70.74940000
C      -45.00030000     -36.30970000     -69.46710000
C      -43.60700000     -36.34520000     -69.42780000
C      -42.80570000     -36.53270000     -70.56400000
H      -42.86220000     -36.81820000     -72.66610000
H      -46.67900000     -36.33140000     -70.88860000
H      -43.02530000     -36.14160000     -68.55000000
H      -41.76310000     -36.47420000     -70.41240000
C      -45.76050000     -35.91300000     -68.22390000
H      -45.15790000     -35.15780000     -67.70190000
H      -45.83790000     -36.76480000     -67.48300000
C      -45.41930000     -36.71710000     -73.24250000
H      -45.28200000     -37.70800000     -73.55550000
H      -46.56120000     -36.69170000     -73.11280000
S      -47.48070000     -35.21820000     -68.54010000
S      -44.80220000     -35.53920000     -74.55520000
C      -47.35770000     -33.50390000     -69.20570000
H      -48.35890000     -33.32950000     -69.57620000
H      -47.24450000     -32.94690000     -68.28190000
C      -45.29370000     -33.80590000     -73.95400000
H      -46.31420000     -33.86600000     -73.54700000
H      -45.45180000     -33.18350000     -74.86900000
C      -44.27230000     -33.16640000     -72.99310000
H      -44.29670000     -33.73240000     -72.05180000
H      -43.37590000     -33.23100000     -73.46510000
C      -46.17830000     -33.20100000     -70.13160000
H      -46.29970000     -33.72700000     -71.12650000
H      -45.22090000     -33.62320000     -69.69590000
C      -46.02680000     -31.70140000     -70.37900000
C      -46.53730000     -30.71440000     -69.59420000
C      -45.25920000     -31.16320000     -71.52750000
H      -47.26850000     -30.79120000     -68.79040000
C      -45.24660000     -29.77370000     -71.52710000
C      -44.53060000     -31.72680000     -72.70010000
C      -44.03330000     -30.71990000     -73.52930000
S      -46.19290000     -29.11290000     -70.16850000
S      -44.41530000     -29.12050000     -72.99240000
H      -43.33730000     -30.92340000     -74.34920000
