40
Properties=species:S:1:pos:R:3 #=T CELL(abcABC):=T 1.889726e+02=T 90.00000=T Traj:=T positionsangstrom=T Step:=T 0=T Bead:=T pbc="F F F"
C      -47.21100000     -33.26230000     -74.37290000
C      -47.32830000     -31.95560000     -73.80890000
C      -48.01320000     -31.75540000     -72.60020000
C      -48.47810000     -32.84590000     -71.90780000
C      -48.48800000     -34.10980000     -72.57730000
C      -47.83040000     -34.31620000     -73.75820000
H      -46.63730000     -33.41980000     -75.29220000
H      -48.01500000     -30.76080000     -72.11780000
H      -48.93560000     -34.94420000     -72.00850000
H      -47.72430000     -35.30500000     -74.24220000
C      -49.26770000     -32.64050000     -70.66540000
H      -50.32610000     -32.98270000     -70.82660000
H      -49.40520000     -31.60010000     -70.42030000
C      -46.60290000     -30.74650000     -74.36260000
H      -46.17190000     -30.95630000     -75.36540000
H      -47.32940000     -29.96810000     -74.40840000
S      -48.57430000     -33.39110000     -69.06860000
S      -45.29300000     -30.14710000     -73.13220000
C      -46.70680000     -33.50100000     -69.18990000
H      -46.28920000     -32.56110000     -69.51520000
H      -46.39380000     -33.73350000     -68.12610000
C      -44.39810000     -31.73520000     -72.75160000
H      -43.56140000     -31.98800000     -73.42520000
H      -45.10090000     -32.55530000     -72.92510000
C      -43.89250000     -31.70080000     -71.33700000
H      -43.34620000     -30.71970000     -71.36100000
H      -44.75300000     -31.51150000     -70.63580000
C      -46.16840000     -34.42510000     -70.24080000
H      -46.20950000     -33.98290000     -71.21230000
H      -46.88480000     -35.24050000     -70.24820000
C      -44.75800000     -34.90320000     -70.11720000
C      -44.43230000     -36.19730000     -69.69980000
C      -43.50210000     -34.19970000     -70.45830000
H      -45.28110000     -36.86590000     -69.32210000
C      -42.36670000     -35.07680000     -70.27940000
C      -43.03250000     -32.87160000     -70.88030000
C      -41.67260000     -32.87260000     -71.04740000
S      -42.70930000     -36.60660000     -69.55010000
S      -40.85890000     -34.34690000     -70.64680000
H      -41.10940000     -31.97570000     -71.42890000
