40
Properties=species:S:1:pos:R:3 #=T CELL(abcABC):=T 1.889726e+02=T 90.00000=T Traj:=T positionsangstrom=T Step:=T 0=T Bead:=T pbc="F F F"
C      -47.26020000     -33.16280000     -74.34570000
C      -47.32340000     -31.85470000     -73.73860000
C      -48.02540000     -31.67730000     -72.52530000
C      -48.60250000     -32.77930000     -71.86660000
C      -48.46930000     -34.02880000     -72.45680000
C      -47.79560000     -34.22040000     -73.66250000
H      -46.69350000     -33.31870000     -75.22410000
H      -48.10820000     -30.70150000     -72.18620000
H      -48.91710000     -34.86280000     -71.94790000
H      -47.73100000     -35.25170000     -74.11890000
C      -49.20980000     -32.66330000     -70.53390000
H      -50.24510000     -33.12070000     -70.52060000
H      -49.25340000     -31.60360000     -70.28430000
C      -46.60880000     -30.64380000     -74.28680000
H      -46.13940000     -30.93470000     -75.21050000
H      -47.17270000     -29.76150000     -74.58310000
S      -48.49440000     -33.56530000     -69.11970000
S      -45.23130000     -30.11040000     -73.21510000
C      -46.71090000     -33.42420000     -69.31220000
H      -46.54530000     -32.35300000     -69.42690000
H      -46.30520000     -33.76490000     -68.37130000
C      -44.37840000     -31.77410000     -72.79110000
H      -43.50670000     -31.83390000     -73.38090000
H      -45.12400000     -32.54030000     -73.04990000
C      -44.06590000     -31.83800000     -71.31040000
H      -43.51420000     -30.97290000     -71.03490000
H      -44.99410000     -31.90760000     -70.73640000
C      -46.06550000     -34.35300000     -70.38870000
H      -46.08780000     -33.79900000     -71.34220000
H      -46.74020000     -35.23310000     -70.52210000
C      -44.69330000     -34.92320000     -70.13890000
C      -44.51550000     -36.18800000     -69.59610000
C      -43.44590000     -34.29410000     -70.49160000
H      -45.21260000     -36.90090000     -69.17620000
C      -42.33020000     -35.12390000     -70.23850000
C      -43.05940000     -32.98110000     -70.91650000
C      -41.72780000     -32.84690000     -71.19590000
S      -42.80090000     -36.69570000     -69.57000000
S      -40.85750000     -34.25570000     -70.60150000
H      -41.17460000     -31.94080000     -71.39420000
