40
Properties=species:S:1:pos:R:3 #=T CELL(abcABC):=T 1.889726e+02=T 90.00000=T Traj:=T positionsangstrom=T Step:=T 0=T Bead:=T pbc="F F F"
C      -47.95500000     -33.33560000     -74.45450000
C      -47.43190000     -32.19640000     -73.87520000
C      -47.73980000     -31.90900000     -72.55460000
C      -48.45620000     -32.77120000     -71.76070000
C      -48.98840000     -33.94980000     -72.34070000
C      -48.78390000     -34.21290000     -73.72350000
H      -47.69300000     -33.73310000     -75.38730000
H      -47.39620000     -30.96300000     -72.08190000
H      -49.56520000     -34.62660000     -71.68930000
H      -48.96400000     -35.18090000     -74.09710000
C      -48.74330000     -32.39410000     -70.33660000
H      -49.81760000     -32.21640000     -70.31930000
H      -48.22280000     -31.48510000     -69.96950000
C      -46.66750000     -31.20160000     -74.66260000
H      -46.30050000     -31.65040000     -75.64330000
H      -47.19100000     -30.32240000     -75.02580000
S      -48.34830000     -33.59550000     -68.98690000
S      -45.22230000     -30.60130000     -73.72300000
C      -46.50370000     -33.79520000     -69.14980000
H      -46.03010000     -32.80810000     -69.13320000
H      -46.07140000     -34.39500000     -68.34410000
C      -44.35230000     -32.03190000     -72.93820000
H      -43.43780000     -32.27370000     -73.52430000
H      -44.95690000     -32.91040000     -72.95030000
C      -43.96780000     -31.64010000     -71.49770000
H      -43.44600000     -30.70490000     -71.47130000
H      -44.93060000     -31.57700000     -70.96380000
C      -46.10070000     -34.51510000     -70.38260000
H      -46.27400000     -33.85700000     -71.24620000
H      -46.69940000     -35.41720000     -70.60320000
C      -44.63220000     -34.86490000     -70.26220000
C      -44.34760000     -36.12210000     -69.78740000
C      -43.47730000     -34.01570000     -70.32120000
H      -45.00160000     -36.97280000     -69.58370000
C      -42.29430000     -34.74970000     -70.07710000
C      -43.06300000     -32.75760000     -70.88560000
C      -41.72030000     -32.52570000     -70.96000000
S      -42.64120000     -36.43550000     -69.56880000
S      -40.82980000     -33.85630000     -70.13880000
H      -41.19060000     -31.59560000     -71.21880000
