40
Properties=species:S:1:pos:R:3 #=T CELL(abcABC):=T 1.889726e+02=T 90.00000=T Traj:=T positionsangstrom=T Step:=T 0=T Bead:=T pbc="F F F"
C      -47.85970000     -36.57480000     -69.39620000
C      -47.54390000     -36.09610000     -70.69540000
C      -47.83990000     -34.73200000     -70.92860000
C      -48.47610000     -33.87340000     -70.08260000
C      -48.84030000     -34.39990000     -68.80260000
C      -48.52780000     -35.70260000     -68.50350000
H      -47.73340000     -37.67710000     -69.10780000
H      -47.60380000     -34.36870000     -71.93610000
H      -49.31160000     -33.76660000     -68.04510000
H      -48.70740000     -36.00980000     -67.44430000
C      -48.84730000     -32.42780000     -70.54190000
H      -49.85010000     -32.19700000     -70.30220000
H      -48.72130000     -32.19470000     -71.62780000
C      -46.91720000     -37.01620000     -71.74050000
H      -46.53620000     -37.91680000     -71.19620000
H      -47.65500000     -37.40180000     -72.46790000
S      -47.88230000     -30.95970000     -69.84380000
S      -45.46930000     -36.20400000     -72.55690000
C      -46.16810000     -31.44570000     -70.32880000
H      -45.59720000     -30.54260000     -70.19840000
H      -45.65210000     -32.30530000     -69.86050000
C      -44.32540000     -35.79330000     -71.10990000
H      -43.36760000     -35.87530000     -71.57090000
H      -44.50090000     -36.60920000     -70.38940000
C      -44.39660000     -34.42570000     -70.49920000
H      -45.41130000     -33.88620000     -70.49960000
H      -44.09390000     -34.37380000     -69.47720000
C      -46.06760000     -31.64570000     -71.86800000
H      -46.71630000     -30.96620000     -72.35280000
H      -46.49980000     -32.66700000     -72.10030000
C      -44.64870000     -31.51520000     -72.31050000
C      -44.19910000     -30.46200000     -73.04070000
C      -43.49730000     -32.41240000     -72.07960000
H      -44.75190000     -29.61140000     -73.29100000
C      -42.32970000     -32.00510000     -72.64210000
C      -43.33260000     -33.54590000     -71.22250000
C      -41.97670000     -33.82450000     -71.01800000
S      -42.51700000     -30.44930000     -73.48730000
S      -40.92530000     -32.89690000     -72.11110000
H      -41.58410000     -34.72390000     -70.63450000
