40
Properties=species:S:1:pos:R:3 #=T CELL(abcABC):=T 1.889726e+02=T 90.00000=T Traj:=T positionsangstrom=T Step:=T 0=T Bead:=T pbc="F F F"
C      -45.59840000     -30.21400000     -73.66700000
C      -45.18030000     -30.18440000     -72.34350000
C      -46.16090000     -30.34260000     -71.35180000
C      -47.49950000     -30.67020000     -71.68330000
C      -47.76790000     -31.00210000     -73.03050000
C      -46.86200000     -30.71220000     -74.06360000
H      -44.87380000     -30.00670000     -74.42900000
H      -45.98420000     -30.21160000     -70.29900000
H      -48.74450000     -31.32790000     -73.41000000
H      -47.11430000     -30.87330000     -75.10240000
C      -48.64140000     -30.87420000     -70.66590000
H      -49.60210000     -30.34140000     -70.90810000
H      -48.54450000     -30.63810000     -69.57020000
C      -43.71640000     -29.83290000     -71.98940000
H      -43.53900000     -28.85510000     -72.34610000
H      -43.60850000     -29.70310000     -70.93330000
S      -49.24240000     -32.60170000     -70.74450000
S      -42.36980000     -30.92330000     -72.71960000
C      -47.68250000     -33.40970000     -70.05770000
H      -47.12010000     -32.68280000     -69.44990000
H      -48.01850000     -34.28580000     -69.38810000
C      -42.84810000     -32.72590000     -72.56660000
H      -41.85580000     -33.29960000     -72.59220000
H      -43.41700000     -33.22430000     -73.40780000
C      -43.54970000     -33.05770000     -71.24730000
H      -43.14350000     -32.57460000     -70.36940000
H      -44.56290000     -32.82640000     -71.40340000
C      -46.84840000     -34.09590000     -71.21910000
H      -46.19520000     -33.38340000     -71.66310000
H      -47.55540000     -34.43450000     -71.97880000
C      -46.02640000     -35.27280000     -70.63270000
C      -46.61110000     -36.48760000     -70.22990000
C      -44.60500000     -35.32410000     -70.64130000
H      -47.66590000     -36.59990000     -70.07610000
C      -44.18590000     -36.59780000     -70.21880000
C      -43.44730000     -34.51960000     -70.92330000
C      -42.22960000     -35.19150000     -70.86130000
S      -45.41760000     -37.68360000     -69.74190000
S      -42.49670000     -36.85150000     -70.32950000
H      -41.27790000     -34.76210000     -71.07440000
