40
Properties=species:S:1:pos:R:3 #=T CELL(abcABC):=T 1.889726e+02=T 90.00000=T Traj:=T positionsangstrom=T Step:=T 0=T Bead:=T pbc="F F F"
C      -48.36850000     -33.26740000     -74.35710000
C      -47.61110000     -32.21310000     -73.78550000
C      -47.78200000     -31.80810000     -72.47800000
C      -48.72960000     -32.46000000     -71.66990000
C      -49.60680000     -33.36710000     -72.29530000
C      -49.43020000     -33.80390000     -73.59010000
H      -47.97380000     -33.54460000     -75.33540000
H      -47.18190000     -31.03770000     -71.93940000
H      -50.38770000     -33.80510000     -71.60690000
H      -50.09140000     -34.56400000     -73.96930000
C      -48.90120000     -32.39070000     -70.21170000
H      -49.94460000     -32.39110000     -70.04260000
H      -48.45030000     -31.38750000     -69.78800000
C      -46.61840000     -31.47010000     -74.73680000
H      -46.26060000     -32.13400000     -75.54830000
H      -47.10520000     -30.66030000     -75.24470000
S      -48.34790000     -33.89780000     -69.26310000
S      -45.17960000     -30.71280000     -73.85460000
C      -46.52910000     -33.69020000     -69.32450000
H      -46.41320000     -32.59740000     -69.47030000
H      -46.02150000     -33.90980000     -68.44080000
C      -44.33980000     -32.09830000     -72.96340000
H      -43.32120000     -32.18860000     -73.30680000
H      -44.79900000     -33.05120000     -73.22950000
C      -44.27620000     -31.84850000     -71.40860000
H      -43.99200000     -30.81970000     -71.16380000
H      -45.23980000     -32.10570000     -70.88080000
C      -45.83200000     -34.59230000     -70.47220000
H      -45.65320000     -33.91610000     -71.28980000
H      -46.51750000     -35.37170000     -70.83380000
C      -44.39070000     -35.03980000     -70.09010000
C      -43.89210000     -36.30860000     -69.76060000
C      -43.32120000     -34.14220000     -70.26060000
H      -44.60420000     -37.12080000     -69.57070000
C      -42.06950000     -34.70470000     -69.89560000
C      -43.15370000     -32.78770000     -70.77750000
C      -41.83740000     -32.39970000     -70.77220000
S      -42.16070000     -36.47530000     -69.49940000
S      -40.74080000     -33.64560000     -70.24260000
H      -41.27380000     -31.46010000     -70.88480000
