40
Properties=species:S:1:pos:R:3 #=T CELL(abcABC):=T 1.889726e+02=T 90.00000=T Traj:=T positionsangstrom=T Step:=T 0=T Bead:=T pbc="F F F"
C      -45.84070000     -30.23220000     -73.53280000
C      -45.27070000     -30.11520000     -72.26820000
C      -46.05140000     -30.29520000     -71.11420000
C      -47.44830000     -30.62350000     -71.27490000
C      -47.98560000     -30.65640000     -72.53560000
C      -47.20890000     -30.50560000     -73.62820000
H      -45.30340000     -30.19280000     -74.47220000
H      -45.55530000     -30.19090000     -70.19010000
H      -49.05760000     -30.86130000     -72.70160000
H      -47.67610000     -30.59490000     -74.62410000
C      -48.34980000     -30.95890000     -70.01340000
H      -49.19350000     -30.26290000     -70.05980000
H      -47.66160000     -30.89480000     -69.17160000
C      -43.82230000     -29.87060000     -72.14810000
H      -43.42410000     -28.96430000     -72.57830000
H      -43.51390000     -29.83410000     -71.02860000
S      -49.08340000     -32.65270000     -70.04910000
S      -42.60130000     -30.98630000     -73.04290000
C      -47.65640000     -33.76050000     -69.70000000
H      -47.05300000     -33.40420000     -68.84750000
H      -47.95940000     -34.80070000     -69.45330000
C      -43.27300000     -32.66790000     -72.74360000
H      -42.64480000     -33.35910000     -73.28850000
H      -44.24960000     -32.77920000     -73.18080000
C      -43.38310000     -33.01180000     -71.23220000
H      -42.48370000     -32.60570000     -70.72920000
H      -44.25620000     -32.54930000     -70.79930000
C      -46.68320000     -33.86880000     -70.89670000
H      -45.92850000     -33.07110000     -70.85170000
H      -47.22830000     -33.84270000     -71.83900000
C      -45.94410000     -35.21500000     -70.82120000
C      -46.56110000     -36.42190000     -70.67400000
C      -44.50240000     -35.33290000     -70.82780000
H      -47.60650000     -36.58690000     -70.61440000
C      -44.07320000     -36.66260000     -70.56690000
C      -43.33660000     -34.48960000     -71.03600000
C      -42.17760000     -35.21280000     -70.87660000
S      -45.43520000     -37.76400000     -70.42630000
S      -42.39210000     -36.90330000     -70.67680000
H      -41.21060000     -34.72190000     -70.88830000
