40
Properties=species:S:1:pos:R:3 #=T CELL(abcABC):=T 1.889726e+02=T 90.00000=T Traj:=T positionsangstrom=T Step:=T 0=T Bead:=T pbc="F F F"
C      -49.24620000     -35.27980000     -71.21000000
C      -48.87070000     -34.18270000     -72.01140000
C      -48.59850000     -32.89650000     -71.47280000
C      -48.57080000     -32.86470000     -70.04820000
C      -48.92930000     -33.96050000     -69.23230000
C      -49.24750000     -35.17240000     -69.83560000
H      -49.60730000     -36.21100000     -71.69620000
H      -48.37320000     -32.05300000     -72.00650000
H      -48.93060000     -33.87530000     -68.16460000
H      -49.36600000     -36.09510000     -69.26620000
C      -48.40360000     -31.55410000     -69.37850000
H      -48.41390000     -31.57410000     -68.31940000
H      -49.23400000     -31.01090000     -69.65280000
C      -48.65710000     -34.45080000     -73.48230000
H      -48.67470000     -35.55030000     -73.74580000
H      -49.36140000     -34.10340000     -74.08900000
S      -46.99470000     -30.56240000     -70.01880000
S      -47.12860000     -33.78280000     -74.21850000
C      -45.62470000     -31.77980000     -70.13020000
H      -45.17220000     -31.94790000     -69.20950000
H      -46.05780000     -32.75590000     -70.36020000
C      -45.84250000     -34.67420000     -73.12230000
H      -45.86580000     -35.79400000     -73.26520000
H      -46.13900000     -34.48200000     -72.10750000
C      -44.41200000     -34.13080000     -73.45250000
H      -44.15850000     -34.58890000     -74.42230000
H      -44.43160000     -33.03170000     -73.64830000
C      -44.59920000     -31.38570000     -71.21290000
H      -44.42050000     -30.32890000     -71.16570000
H      -44.87330000     -31.67800000     -72.18720000
C      -43.26890000     -32.12400000     -70.90780000
C      -42.30240000     -31.69380000     -70.06370000
C      -42.87810000     -33.41460000     -71.43720000
H      -42.33840000     -30.76040000     -69.54740000
C      -41.66650000     -33.82880000     -70.89270000
C      -43.28370000     -34.39650000     -72.45750000
C      -42.53580000     -35.57720000     -72.42330000
S      -41.02130000     -32.76600000     -69.68500000
S      -41.10630000     -35.43540000     -71.42070000
H      -42.52080000     -36.45460000     -73.12080000
