40
Properties=species:S:1:pos:R:3 #=T CELL(abcABC):=T 1.889726e+02=T 90.00000=T Traj:=T positionsangstrom=T Step:=T 0=T Bead:=T pbc="F F F"
C      -46.08930000     -29.92290000     -73.35120000
C      -45.33110000     -30.06720000     -72.10690000
C      -46.03570000     -30.39590000     -70.95320000
C      -47.41730000     -30.62620000     -70.97730000
C      -48.11270000     -30.48910000     -72.14490000
C      -47.43500000     -30.14420000     -73.33370000
H      -45.53690000     -29.64230000     -74.21300000
H      -45.54310000     -30.63320000     -69.96010000
H      -49.23730000     -30.53000000     -72.21770000
H      -48.05610000     -29.99500000     -74.14990000
C      -48.12620000     -31.00400000     -69.69800000
H      -48.98690000     -30.31510000     -69.40350000
H      -47.47180000     -31.08420000     -68.82560000
C      -43.82290000     -29.85690000     -72.13490000
H      -43.59420000     -28.78450000     -72.39750000
H      -43.40530000     -29.95120000     -71.17910000
S      -49.00880000     -32.65530000     -69.70830000
S      -42.85070000     -31.03240000     -73.27330000
C      -47.57260000     -33.89440000     -69.72360000
H      -47.03760000     -33.74600000     -68.77040000
H      -48.10200000     -34.84360000     -69.50910000
C      -43.36900000     -32.72010000     -72.61790000
H      -42.78160000     -33.46770000     -73.07350000
H      -44.31660000     -32.98390000     -72.97750000
C      -43.26490000     -32.99600000     -71.14170000
H      -42.26270000     -32.66370000     -70.81410000
H      -44.09660000     -32.50460000     -70.59180000
C      -46.67530000     -34.00250000     -70.97140000
H      -46.08410000     -33.09670000     -71.05230000
H      -47.31360000     -33.99470000     -71.88610000
C      -45.88950000     -35.27440000     -71.01310000
C      -46.47670000     -36.53520000     -70.96210000
C      -44.44040000     -35.36560000     -71.00980000
H      -47.55840000     -36.74580000     -70.83070000
C      -44.03610000     -36.70290000     -70.97960000
C      -43.31040000     -34.46670000     -70.92120000
C      -42.09980000     -35.16560000     -70.79980000
S      -45.33910000     -37.79360000     -70.86250000
S      -42.32110000     -36.92160000     -70.82820000
H      -41.12940000     -34.69490000     -70.80730000
