40
Properties=species:S:1:pos:R:3 #=T CELL(abcABC):=T 1.889726e+02=T 90.00000=T Traj:=T positionsangstrom=T Step:=T 0=T Bead:=T pbc="F F F"
C      -43.21950000     -34.87260000     -71.51580000
C      -44.10200000     -35.75590000     -70.95430000
C      -44.59420000     -35.47440000     -69.69100000
C      -44.28190000     -34.24570000     -69.04330000
C      -43.41950000     -33.33800000     -69.70190000
C      -42.73560000     -33.67980000     -70.89120000
H      -42.94650000     -35.07210000     -72.52930000
H      -45.30650000     -36.20590000     -69.27920000
H      -43.15670000     -32.36720000     -69.24890000
H      -42.06080000     -33.05150000     -71.43490000
C      -44.93780000     -33.90680000     -67.75310000
H      -44.25790000     -33.44280000     -67.09090000
H      -45.39910000     -34.79700000     -67.20630000
C      -44.54160000     -37.00210000     -71.66760000
H      -43.77920000     -37.76660000     -71.93760000
H      -45.25190000     -37.49940000     -71.05990000
S      -46.29840000     -32.62370000     -68.03420000
S      -45.41840000     -36.54270000     -73.23100000
C      -47.32150000     -33.51390000     -69.25130000
H      -46.67910000     -34.28310000     -69.77500000
H      -48.12260000     -33.97780000     -68.76000000
C      -46.84420000     -35.66210000     -72.50530000
H      -46.57370000     -35.57000000     -71.47990000
H      -47.74780000     -36.24620000     -72.52810000
C      -47.10300000     -34.32430000     -73.16500000
H      -47.53730000     -34.66440000     -74.15520000
H      -47.98250000     -33.82550000     -72.66500000
C      -47.84800000     -32.50200000     -70.26590000
H      -48.55840000     -31.81450000     -69.88330000
H      -48.53970000     -33.00390000     -70.91170000
C      -46.70890000     -31.76610000     -71.07220000
C      -46.37650000     -30.54060000     -70.57610000
C      -45.98020000     -32.15440000     -72.22770000
H      -46.86170000     -29.99030000     -69.79690000
C      -44.93480000     -31.25130000     -72.58500000
C      -46.03340000     -33.30200000     -73.14010000
C      -45.05450000     -33.28010000     -74.05760000
S      -45.13790000     -29.77190000     -71.59540000
S      -43.86550000     -31.92830000     -73.85440000
H      -44.88640000     -33.97410000     -74.83100000
