40
Properties=species:S:1:pos:R:3 #=T CELL(abcABC):=T 1.889726e+02=T 90.00000=T Traj:=T positionsangstrom=T Step:=T 0=T Bead:=T pbc="F F F"
C      -43.14250000     -35.41640000     -71.59280000
C      -44.21070000     -36.07140000     -70.92940000
C      -44.75340000     -35.52070000     -69.77920000
C      -44.25000000     -34.31400000     -69.26750000
C      -43.20460000     -33.65650000     -69.98100000
C      -42.65420000     -34.18590000     -71.13950000
H      -42.80960000     -35.72410000     -72.58830000
H      -45.61440000     -36.04260000     -69.33330000
H      -42.81150000     -32.70920000     -69.63320000
H      -41.91140000     -33.66910000     -71.73000000
C      -44.89080000     -33.72160000     -67.97700000
H      -44.05770000     -33.33240000     -67.31770000
H      -45.37800000     -34.47060000     -67.40810000
C      -44.90530000     -37.19720000     -71.67120000
H      -44.19580000     -37.89070000     -72.11370000
H      -45.52830000     -37.85120000     -71.04500000
S      -46.04580000     -32.35710000     -68.34050000
S      -46.01750000     -36.74160000     -72.98770000
C      -47.40640000     -33.26240000     -69.38670000
H      -46.80630000     -34.11120000     -69.80430000
H      -48.09400000     -33.61470000     -68.63740000
C      -47.07870000     -35.52440000     -72.25980000
H      -46.75660000     -35.32640000     -71.24440000
H      -48.12590000     -35.96190000     -72.15850000
C      -47.06770000     -34.21510000     -73.12700000
H      -47.04550000     -34.56890000     -74.27040000
H      -48.03780000     -33.68010000     -73.05430000
C      -47.86930000     -32.25080000     -70.46710000
H      -48.47920000     -31.45660000     -69.97710000
H      -48.69930000     -32.73210000     -70.95730000
C      -46.77490000     -31.53880000     -71.17600000
C      -46.36250000     -30.29730000     -70.70130000
C      -45.88010000     -32.07870000     -72.18010000
H      -46.91990000     -29.76210000     -69.94400000
C      -44.85380000     -31.21580000     -72.43570000
C      -45.91910000     -33.26980000     -73.02790000
C      -44.82160000     -33.25420000     -73.85380000
S      -44.84050000     -29.81230000     -71.30830000
S      -43.80450000     -31.81980000     -73.70410000
H      -44.65200000     -33.97110000     -74.68620000
