40
Properties=species:S:1:pos:R:3 #=T CELL(abcABC):=T 1.889726e+02=T 90.00000=T Traj:=T positionsangstrom=T Step:=T 0=T Bead:=T pbc="F F F"
C      -43.19910000     -35.16790000     -71.52720000
C      -44.17150000     -35.88300000     -70.84070000
C      -44.61830000     -35.49860000     -69.58770000
C      -44.18940000     -34.26720000     -69.08040000
C      -43.32310000     -33.49520000     -69.81260000
C      -42.77080000     -33.96090000     -71.01600000
H      -42.70520000     -35.56870000     -72.39810000
H      -45.39890000     -36.07590000     -69.04620000
H      -43.03490000     -32.54940000     -69.37440000
H      -42.04860000     -33.34980000     -71.62010000
C      -44.73570000     -33.70760000     -67.76370000
H      -43.97620000     -33.07230000     -67.36560000
H      -44.99830000     -34.55110000     -67.10480000
C      -44.75600000     -37.13010000     -71.49820000
H      -44.03170000     -37.87030000     -71.89680000
H      -45.45550000     -37.55290000     -70.76140000
S      -46.17920000     -32.54740000     -67.99380000
S      -45.52960000     -36.68540000     -73.15910000
C      -47.18290000     -33.28080000     -69.25580000
H      -46.65020000     -34.04630000     -69.82660000
H      -47.98420000     -33.88130000     -68.74180000
C      -47.06130000     -35.58790000     -72.68090000
H      -46.85210000     -35.42440000     -71.60240000
H      -48.01630000     -36.18740000     -72.70080000
C      -47.05090000     -34.28740000     -73.47940000
H      -46.92190000     -34.52550000     -74.49200000
H      -48.01310000     -33.73990000     -73.33660000
C      -47.87730000     -32.44680000     -70.33360000
H      -48.59380000     -31.78870000     -69.82390000
H      -48.31710000     -33.32570000     -70.92870000
C      -46.89170000     -31.62720000     -71.15720000
C      -46.47070000     -30.38160000     -70.74330000
C      -46.05670000     -32.14090000     -72.23290000
H      -46.91630000     -29.77550000     -69.97260000
C      -44.98640000     -31.25800000     -72.49850000
C      -45.98890000     -33.34330000     -73.14020000
C      -44.84590000     -33.26700000     -73.85710000
S      -45.05980000     -29.81730000     -71.59390000
S      -43.93260000     -31.76630000     -73.77010000
H      -44.67470000     -33.96190000     -74.63440000
