40
Properties=species:S:1:pos:R:3 #=T CELL(abcABC):=T 1.889726e+02=T 90.00000=T Traj:=T positionsangstrom=T Step:=T 0=T Bead:=T pbc="F F F"
C      -43.12490000     -35.40710000     -71.75360000
C      -44.14050000     -36.09610000     -71.09020000
C      -44.69130000     -35.61600000     -69.91370000
C      -44.31610000     -34.36670000     -69.37410000
C      -43.31780000     -33.68240000     -70.02870000
C      -42.67630000     -34.25170000     -71.15430000
H      -42.58400000     -35.86960000     -72.54590000
H      -45.49180000     -36.18750000     -69.45810000
H      -43.03830000     -32.69530000     -69.78630000
H      -41.94770000     -33.69400000     -71.72690000
C      -44.86000000     -33.84170000     -68.09050000
H      -43.99110000     -33.58100000     -67.52060000
H      -45.41400000     -34.62100000     -67.56430000
C      -44.77520000     -37.28120000     -71.67920000
H      -43.97640000     -37.94470000     -72.13850000
H      -45.24720000     -37.87220000     -70.91290000
S      -46.04080000     -32.36710000     -68.21250000
S      -46.11720000     -36.87440000     -72.97570000
C      -47.52670000     -32.84700000     -69.05830000
H      -47.49610000     -33.86910000     -69.48820000
H      -48.45850000     -32.86730000     -68.42000000
C      -47.06530000     -35.45200000     -72.32920000
H      -46.57600000     -35.19950000     -71.39300000
H      -48.08000000     -35.70720000     -72.05730000
C      -47.11190000     -34.22600000     -73.24950000
H      -47.06740000     -34.47730000     -74.30770000
H      -48.03990000     -33.73720000     -73.04750000
C      -47.90600000     -32.05680000     -70.28780000
H      -48.47180000     -31.18320000     -69.97650000
H      -48.56110000     -32.66130000     -70.91300000
C      -46.63930000     -31.46890000     -71.01430000
C      -46.14910000     -30.20880000     -70.57630000
C      -45.93810000     -32.02260000     -72.12740000
H      -46.66180000     -29.52690000     -69.83770000
C      -44.78880000     -31.28420000     -72.37580000
C      -46.05040000     -33.15010000     -73.00740000
C      -44.96020000     -33.25120000     -73.86670000
S      -44.74880000     -29.73450000     -71.52930000
S      -43.80060000     -31.97420000     -73.61510000
H      -44.93760000     -33.92960000     -74.77660000
