40
Properties=species:S:1:pos:R:3 #=T CELL(abcABC):=T 1.889726e+02=T 90.00000=T Traj:=T positionsangstrom=T Step:=T 0=T Bead:=T pbc="F F F"
C      -46.99180000     -35.84710000     -73.87700000
C      -47.08150000     -34.44610000     -74.00990000
C      -47.73420000     -33.74320000     -73.01800000
C      -48.29140000     -34.33920000     -71.87880000
C      -48.31380000     -35.79070000     -71.84050000
C      -47.63240000     -36.52510000     -72.86610000
H      -46.55450000     -36.44000000     -74.64500000
H      -47.78970000     -32.64530000     -73.19550000
H      -48.94040000     -36.34960000     -71.12300000
H      -47.68740000     -37.64000000     -72.79380000
C      -48.97520000     -33.48170000     -70.81660000
H      -50.01840000     -33.59740000     -70.86700000
H      -48.87750000     -32.41790000     -71.03200000
C      -46.54660000     -33.68560000     -75.25700000
H      -45.63750000     -34.17940000     -75.67720000
H      -47.30050000     -33.58920000     -76.02930000
S      -48.43150000     -33.77650000     -69.08750000
S      -46.06020000     -31.99590000     -74.84330000
C      -46.62270000     -33.27260000     -69.05600000
H      -46.56630000     -32.22170000     -69.45050000
H      -46.29860000     -33.25870000     -67.99620000
C      -44.62110000     -32.18900000     -73.68950000
H      -44.02000000     -31.33040000     -73.95870000
H      -44.10100000     -33.10660000     -73.89140000
C      -44.90900000     -32.04160000     -72.16020000
H      -45.60420000     -31.23010000     -71.89700000
H      -45.36020000     -32.96930000     -72.00790000
C      -45.72920000     -34.31230000     -69.69950000
H      -46.01420000     -34.41640000     -70.82240000
H      -45.94390000     -35.27710000     -69.17620000
C      -44.28700000     -33.89930000     -69.43950000
C      -43.47660000     -34.55000000     -68.54670000
C      -43.57540000     -32.79040000     -70.13040000
H      -43.90520000     -35.32150000     -67.95160000
C      -42.30130000     -32.70040000     -69.60990000
C      -43.74280000     -31.94530000     -71.28960000
C      -42.60370000     -31.21180000     -71.62610000
S      -41.84400000     -33.90860000     -68.39290000
S      -41.37520000     -31.46220000     -70.47680000
H      -42.59840000     -30.38400000     -72.37100000
