40
Properties=species:S:1:pos:R:3 #=T CELL(abcABC):=T 1.889726e+02=T 90.00000=T Traj:=T positionsangstrom=T Step:=T 0=T Bead:=T pbc="F F F"
C      -47.05860000     -35.82420000     -73.84590000
C      -47.18330000     -34.47720000     -74.04900000
C      -47.92590000     -33.71870000     -73.13930000
C      -48.30430000     -34.27520000     -71.90670000
C      -48.09540000     -35.64860000     -71.63950000
C      -47.62870000     -36.38670000     -72.71140000
H      -46.52280000     -36.34800000     -74.64240000
H      -48.09950000     -32.63590000     -73.36920000
H      -48.27100000     -36.10480000     -70.63650000
H      -47.54390000     -37.46260000     -72.51370000
C      -48.85600000     -33.35430000     -70.85300000
H      -49.94180000     -33.38510000     -70.96850000
H      -48.46000000     -32.29860000     -71.06590000
C      -46.54720000     -33.80120000     -75.22550000
H      -45.65010000     -34.46350000     -75.44270000
H      -47.27110000     -33.84630000     -76.05290000
S      -48.48320000     -33.82620000     -69.16280000
S      -46.01380000     -32.01210000     -74.92650000
C      -46.75930000     -33.37890000     -68.81500000
H      -46.58790000     -32.44260000     -69.32540000
H      -46.58960000     -33.39070000     -67.73430000
C      -44.62240000     -32.05240000     -73.66500000
H      -43.93470000     -31.23490000     -74.09150000
H      -43.93870000     -32.89070000     -73.67670000
C      -44.99420000     -31.91170000     -72.21290000
H      -45.56960000     -30.95490000     -72.06400000
H      -45.70070000     -32.64000000     -71.81210000
C      -45.78010000     -34.33080000     -69.53920000
H      -45.98910000     -34.33870000     -70.60120000
H      -45.88460000     -35.35440000     -69.14300000
C      -44.23120000     -34.02610000     -69.48310000
C      -43.43420000     -34.56710000     -68.49680000
C      -43.47740000     -32.96920000     -70.24860000
H      -43.79820000     -35.45040000     -67.98300000
C      -42.24200000     -32.79550000     -69.75130000
C      -43.75590000     -32.00540000     -71.30120000
C      -42.74190000     -31.06450000     -71.47140000
S      -41.78370000     -33.88260000     -68.44790000
S      -41.37660000     -31.51770000     -70.48200000
H      -42.75780000     -30.28980000     -72.24390000
