40
Properties=species:S:1:pos:R:3 #=T CELL(abcABC):=T 1.889726e+02=T 90.00000=T Traj:=T positionsangstrom=T Step:=T 0=T Bead:=T pbc="F F F"
C      -47.12030000     -35.77420000     -73.97540000
C      -47.13960000     -34.41560000     -73.93240000
C      -47.70640000     -33.78970000     -72.80850000
C      -48.37750000     -34.53490000     -71.80450000
C      -48.30030000     -35.91710000     -71.78870000
C      -47.62860000     -36.45740000     -72.90270000
H      -46.59750000     -36.42350000     -74.64910000
H      -47.76110000     -32.75100000     -72.57030000
H      -48.62730000     -36.51030000     -70.94920000
H      -47.44940000     -37.55550000     -72.90750000
C      -49.18320000     -33.87810000     -70.73980000
H      -50.20080000     -34.36420000     -70.59190000
H      -49.30360000     -32.86050000     -71.11270000
C      -46.40900000     -33.65560000     -75.14900000
H      -45.57360000     -34.22550000     -75.55260000
H      -47.10410000     -33.60340000     -76.00990000
S      -48.40810000     -33.87820000     -69.03400000
S      -45.95140000     -31.81510000     -74.91710000
C      -46.69150000     -33.27150000     -69.34560000
H      -46.94280000     -32.45820000     -70.01920000
H      -46.40260000     -32.76710000     -68.39250000
C      -44.53120000     -32.09860000     -73.71930000
H      -43.67980000     -31.52620000     -74.03190000
H      -44.22290000     -33.20390000     -73.78550000
C      -44.87940000     -31.87140000     -72.23420000
H      -45.33780000     -30.87670000     -72.09520000
H      -45.63280000     -32.62800000     -71.90070000
C      -45.73790000     -34.34940000     -69.87940000
H      -45.79940000     -34.37210000     -70.97730000
H      -46.06630000     -35.27110000     -69.53720000
C      -44.25180000     -33.93020000     -69.55990000
C      -43.55060000     -34.50320000     -68.52290000
C      -43.48230000     -32.90980000     -70.26740000
H      -43.84500000     -35.20760000     -67.78400000
C      -42.21210000     -32.78990000     -69.69990000
C      -43.67650000     -31.98980000     -71.38750000
C      -42.54350000     -31.19070000     -71.64440000
S      -41.98600000     -33.71590000     -68.23880000
S      -41.38000000     -31.50640000     -70.39110000
H      -42.37590000     -30.39070000     -72.44250000
