40
Properties=species:S:1:pos:R:3 #=T CELL(abcABC):=T 1.889726e+02=T 90.00000=T Traj:=T positionsangstrom=T Step:=T 0=T Bead:=T pbc="F F F"
C      -43.31840000     -34.79990000     -71.27120000
C      -44.40430000     -35.61110000     -70.85680000
C      -44.90700000     -35.30090000     -69.52270000
C      -44.42650000     -34.22810000     -68.72170000
C      -43.30870000     -33.54200000     -69.19730000
C      -42.73940000     -33.86400000     -70.42200000
H      -42.87940000     -35.03260000     -72.26250000
H      -45.68890000     -35.91860000     -69.19810000
H      -42.90450000     -32.80180000     -68.55140000
H      -41.93170000     -33.19860000     -70.69020000
C      -45.17860000     -33.83070000     -67.45640000
H      -44.58890000     -33.71470000     -66.52320000
H      -45.93570000     -34.64820000     -67.23830000
C      -45.02610000     -36.77680000     -71.57050000
H      -44.22420000     -37.41470000     -72.05220000
H      -45.57590000     -37.38350000     -70.86920000
S      -46.13580000     -32.20680000     -67.70110000
S      -46.28680000     -36.41900000     -72.87690000
C      -47.25810000     -32.65350000     -69.17090000
H      -46.96090000     -33.60450000     -69.50780000
H      -48.31470000     -32.80960000     -68.86170000
C      -47.49820000     -35.26820000     -72.12050000
H      -47.17360000     -34.96960000     -71.07120000
H      -48.43210000     -35.76500000     -72.08340000
C      -47.69580000     -34.00070000     -73.01210000
H      -48.23820000     -34.30540000     -73.92050000
H      -48.42450000     -33.36660000     -72.44830000
C      -47.23280000     -31.70570000     -70.31740000
H      -47.37940000     -30.75930000     -70.00590000
H      -48.00940000     -31.97420000     -71.01530000
C      -45.89250000     -31.74210000     -71.07880000
C      -44.80680000     -31.02720000     -70.69270000
C      -45.78860000     -32.24820000     -72.40990000
H      -44.72860000     -30.33650000     -69.77110000
C      -44.62630000     -31.81040000     -73.03770000
C      -46.50530000     -33.13700000     -73.36420000
C      -45.90510000     -33.26430000     -74.61780000
S      -43.59120000     -30.86720000     -71.99660000
S      -44.46070000     -32.21600000     -74.69140000
H      -46.33560000     -33.73500000     -75.56290000
