40
Properties=species:S:1:pos:R:3 #=T CELL(abcABC):=T 1.889726e+02=T 90.00000=T Traj:=T positionsangstrom=T Step:=T 0=T Bead:=T pbc="F F F"
C      -43.43420000     -35.27640000     -71.16740000
C      -44.58970000     -35.71570000     -70.54790000
C      -44.88790000     -35.15900000     -69.30650000
C      -44.11680000     -34.14260000     -68.76280000
C      -42.94110000     -33.78660000     -69.35480000
C      -42.59300000     -34.36940000     -70.61210000
H      -43.09450000     -35.65870000     -72.15410000
H      -45.72460000     -35.55220000     -68.66440000
H      -42.27040000     -33.05890000     -68.94220000
H      -41.69210000     -34.03890000     -71.11160000
C      -44.60460000     -33.42510000     -67.52790000
H      -43.67020000     -33.15700000     -67.04470000
H      -45.16620000     -34.12740000     -66.81800000
C      -45.58570000     -36.73480000     -71.17300000
H      -45.07410000     -37.64860000     -71.29620000
H      -46.37360000     -36.96920000     -70.42120000
S      -45.66670000     -31.92530000     -67.79390000
S      -46.25180000     -36.18800000     -72.76770000
C      -46.90170000     -32.50690000     -69.08930000
H      -46.64840000     -33.54910000     -69.51960000
H      -47.82500000     -32.71210000     -68.57840000
C      -47.81880000     -35.36030000     -72.15800000
H      -47.77400000     -35.53350000     -71.02640000
H      -48.68210000     -35.95410000     -72.43500000
C      -47.98360000     -33.95290000     -72.68880000
H      -48.60250000     -34.04530000     -73.55800000
H      -48.38860000     -33.22290000     -71.92940000
C      -47.10560000     -31.52130000     -70.20040000
H      -47.16670000     -30.54050000     -69.85720000
H      -48.03170000     -31.76690000     -70.67430000
C      -45.95140000     -31.61280000     -71.19940000
C      -44.84950000     -30.89780000     -70.92900000
C      -45.93160000     -32.29790000     -72.46620000
H      -44.68840000     -30.16910000     -70.17330000
C      -44.74600000     -31.94690000     -73.18380000
C      -46.68740000     -33.28560000     -73.21180000
C      -46.16920000     -33.48380000     -74.46510000
S      -43.72650000     -30.81970000     -72.29940000
S      -44.69600000     -32.53240000     -74.76770000
H      -46.58200000     -33.85640000     -75.38060000
