40
Properties=species:S:1:pos:R:3 #=T CELL(abcABC):=T 1.889726e+02=T 90.00000=T Traj:=T positionsangstrom=T Step:=T 0=T Bead:=T pbc="F F F"
C      -49.55320000     -35.41460000     -70.81540000
C      -48.87610000     -34.46180000     -71.63180000
C      -48.56640000     -33.19850000     -71.24590000
C      -48.74840000     -32.86850000     -69.88620000
C      -49.37750000     -33.78570000     -69.00160000
C      -49.83020000     -35.02880000     -69.46900000
H      -49.85140000     -36.36740000     -71.24550000
H      -48.16950000     -32.39400000     -71.86190000
H      -49.36270000     -33.50320000     -67.92740000
H      -50.24330000     -35.74420000     -68.79600000
C      -48.26400000     -31.53880000     -69.34090000
H      -47.79640000     -31.60920000     -68.31360000
H      -49.14590000     -30.90260000     -69.22720000
C      -48.60130000     -34.93410000     -73.02200000
H      -48.20150000     -36.01500000     -73.06440000
H      -49.42380000     -34.97340000     -73.68480000
S      -47.04320000     -30.63880000     -70.38040000
S      -47.26130000     -33.95450000     -73.81420000
C      -45.53910000     -31.70340000     -70.12920000
H      -45.15160000     -31.67590000     -69.06510000
H      -45.89170000     -32.73470000     -70.35640000
C      -45.81360000     -34.44750000     -72.70000000
H      -45.87860000     -35.46220000     -72.37850000
H      -45.79370000     -33.94450000     -71.79280000
C      -44.52780000     -34.12610000     -73.44870000
H      -44.34480000     -34.76520000     -74.36290000
H      -44.55540000     -33.12250000     -73.81650000
C      -44.44040000     -31.38590000     -71.18910000
H      -44.09910000     -30.31840000     -71.02710000
H      -44.86870000     -31.48240000     -72.19800000
C      -43.28250000     -32.19980000     -70.90350000
C      -42.38060000     -31.76220000     -69.97420000
C      -42.80840000     -33.43860000     -71.59680000
H      -42.39520000     -30.79860000     -69.33720000
C      -41.55340000     -33.82970000     -71.08840000
C      -43.24110000     -34.33050000     -72.66570000
C      -42.21380000     -35.19900000     -73.00140000
S      -40.87070000     -32.71380000     -69.95010000
S      -40.83770000     -35.14970000     -71.93680000
H      -42.23150000     -35.92140000     -73.82110000
