40
Properties=species:S:1:pos:R:3 #=T CELL(abcABC):=T 1.889726e+02=T 90.00000=T Traj:=T positionsangstrom=T Step:=T 0=T Bead:=T pbc="F F F"
C      -46.00840000     -35.72020000     -73.76590000
C      -46.80430000     -34.59870000     -73.96730000
C      -47.69450000     -34.28910000     -72.92020000
C      -47.94810000     -35.08790000     -71.83140000
C      -47.16520000     -36.20870000     -71.67270000
C      -46.13370000     -36.46190000     -72.56720000
H      -45.25390000     -36.00400000     -74.55120000
H      -48.28510000     -33.41380000     -73.07640000
H      -47.26910000     -36.88250000     -70.81810000
H      -45.49250000     -37.35220000     -72.47770000
C      -49.07700000     -34.66260000     -70.91510000
H      -49.95130000     -35.34050000     -70.95220000
H      -49.44870000     -33.67930000     -71.09590000
C      -46.60000000     -33.73970000     -75.18550000
H      -45.65570000     -34.07430000     -75.68870000
H      -47.44850000     -33.76770000     -75.82760000
S      -48.40860000     -34.88840000     -69.17470000
S      -46.42140000     -31.90880000     -74.92730000
C      -46.63810000     -34.50500000     -69.03860000
H      -46.46810000     -34.74150000     -68.00410000
H      -46.15360000     -35.25020000     -69.70640000
C      -44.80080000     -31.74480000     -73.89710000
H      -44.74060000     -30.70180000     -73.91580000
H      -43.97150000     -32.32890000     -74.39650000
C      -44.93940000     -32.24070000     -72.47390000
H      -45.84520000     -31.74110000     -71.98140000
H      -45.23660000     -33.33870000     -72.59130000
C      -46.18860000     -33.09320000     -69.37920000
H      -46.76890000     -32.37320000     -68.77120000
H      -46.52710000     -32.94040000     -70.40990000
C      -44.67950000     -32.92110000     -69.27130000
C      -44.19510000     -33.06920000     -67.97790000
C      -43.68440000     -32.53220000     -70.26830000
H      -44.81210000     -33.09870000     -67.12240000
C      -42.48780000     -32.18890000     -69.64560000
C      -43.68850000     -32.24990000     -71.68620000
C      -42.47890000     -31.81490000     -72.13800000
S      -42.52000000     -32.50490000     -67.93090000
S      -41.23790000     -31.64040000     -70.85740000
H      -42.48670000     -31.47410000     -73.14520000
