40
Properties=species:S:1:pos:R:3 #=T CELL(abcABC):=T 1.889726e+02=T 90.00000=T Traj:=T positionsangstrom=T Step:=T 0=T Bead:=T pbc="F F F"
C      -43.72620000     -35.36510000     -71.88900000
C      -44.51850000     -35.82310000     -70.81190000
C      -44.52080000     -35.15790000     -69.58370000
C      -43.66470000     -34.03410000     -69.44600000
C      -42.80530000     -33.66690000     -70.44720000
C      -42.84030000     -34.32080000     -71.69120000
H      -43.73870000     -35.99320000     -72.83580000
H      -45.15650000     -35.41820000     -68.72880000
H      -42.13180000     -32.87210000     -70.24110000
H      -42.24600000     -34.06870000     -72.56240000
C      -43.77780000     -33.24640000     -68.16830000
H      -42.81260000     -33.06330000     -67.69680000
H      -44.36980000     -33.85630000     -67.51550000
C      -45.44040000     -37.06370000     -70.88440000
H      -44.93990000     -37.92600000     -71.40660000
H      -45.52470000     -37.34380000     -69.77400000
S      -44.60070000     -31.65320000     -68.44990000
S      -47.17060000     -36.79870000     -71.64620000
C      -46.27540000     -32.16080000     -68.87710000
H      -46.32280000     -33.15230000     -69.31250000
H      -46.96750000     -32.25860000     -68.04970000
C      -47.67250000     -35.20780000     -70.88470000
H      -46.93490000     -34.82340000     -70.21270000
H      -48.64550000     -35.30690000     -70.37920000
C      -47.95680000     -34.05740000     -71.85500000
H      -48.72050000     -34.46350000     -72.61410000
H      -48.49570000     -33.31960000     -71.35570000
C      -46.89780000     -31.17690000     -69.91510000
H      -46.91040000     -30.11440000     -69.48160000
H      -47.86380000     -31.56520000     -70.02560000
C      -46.18800000     -31.12070000     -71.23840000
C      -45.15570000     -30.23080000     -71.37390000
C      -46.07610000     -32.20910000     -72.19490000
H      -45.04250000     -29.20030000     -71.05340000
C      -45.08510000     -31.95510000     -73.14200000
C      -46.80110000     -33.42370000     -72.63090000
C      -46.26570000     -33.94060000     -73.77900000
S      -44.20870000     -30.53610000     -72.83100000
S      -44.94690000     -33.03230000     -74.47610000
H      -46.64390000     -34.83120000     -74.35760000
