40
Properties=species:S:1:pos:R:3 #=T CELL(abcABC):=T 1.889726e+02=T 90.00000=T Traj:=T positionsangstrom=T Step:=T 0=T Bead:=T pbc="F F F"
C      -46.53160000     -36.22110000     -74.19790000
C      -46.91600000     -34.87650000     -74.24750000
C      -47.61480000     -34.45700000     -73.16130000
C      -47.69630000     -35.19400000     -71.99060000
C      -47.20780000     -36.49040000     -71.91960000
C      -46.64720000     -37.04510000     -73.07390000
H      -46.10830000     -36.55480000     -75.13080000
H      -47.94130000     -33.45870000     -73.22150000
H      -47.36990000     -36.93870000     -70.93800000
H      -46.48020000     -38.11650000     -73.08630000
C      -48.63450000     -34.62650000     -70.92940000
H      -49.62220000     -35.17140000     -71.02440000
H      -48.79120000     -33.50910000     -70.97500000
C      -46.48300000     -33.98610000     -75.37920000
H      -45.52230000     -34.35210000     -75.76740000
H      -47.30720000     -33.94930000     -76.16860000
S      -48.17590000     -35.04320000     -69.18000000
S      -46.27070000     -32.18160000     -74.87170000
C      -46.44340000     -34.45680000     -69.36130000
H      -45.91120000     -35.15720000     -68.68760000
H      -46.04010000     -34.68570000     -70.32560000
C      -44.80730000     -32.19980000     -73.83070000
H      -44.24740000     -31.30660000     -74.24470000
H      -44.36880000     -33.16550000     -74.04500000
C      -45.12170000     -31.98200000     -72.30850000
H      -45.76390000     -31.09380000     -72.33310000
H      -45.79210000     -32.82970000     -72.10640000
C      -46.17950000     -32.93160000     -69.07610000
H      -46.68790000     -32.71250000     -68.09520000
H      -46.69860000     -32.33140000     -69.83700000
C      -44.73590000     -32.56700000     -68.98450000
C      -44.16140000     -32.56880000     -67.78130000
C      -43.82600000     -32.10610000     -70.01680000
H      -44.67790000     -32.89640000     -66.86520000
C      -42.49880000     -31.94590000     -69.53840000
C      -43.93020000     -31.88460000     -71.41440000
C      -42.72030000     -31.48660000     -71.92610000
S      -42.43770000     -32.28950000     -67.79980000
S      -41.35420000     -31.43330000     -70.79740000
H      -42.35630000     -31.33660000     -72.97130000
