40
Properties=species:S:1:pos:R:3 #=T CELL(abcABC):=T 1.889726e+02=T 90.00000=T Traj:=T positionsangstrom=T Step:=T 0=T Bead:=T pbc="F F F"
C      -43.85890000     -35.51330000     -71.68920000
C      -44.47560000     -35.80500000     -70.50670000
C      -44.15100000     -34.96110000     -69.42780000
C      -43.28320000     -33.86250000     -69.51450000
C      -42.65550000     -33.61650000     -70.79050000
C      -42.93230000     -34.46400000     -71.85170000
H      -44.17900000     -36.07220000     -72.58490000
H      -44.68510000     -35.03800000     -68.46730000
H      -41.96280000     -32.80190000     -70.81130000
H      -42.49100000     -34.33480000     -72.85300000
C      -43.09510000     -32.86950000     -68.31320000
H      -41.99770000     -32.54420000     -68.33990000
H      -43.38090000     -33.49680000     -67.47230000
C      -45.44260000     -36.98340000     -70.47780000
H      -45.08710000     -37.77890000     -71.16690000
H      -45.47910000     -37.42360000     -69.38730000
S      -44.24040000     -31.37760000     -68.27490000
S      -47.02900000     -36.40720000     -71.23600000
C      -45.83890000     -32.16230000     -68.75040000
H      -45.62720000     -33.19350000     -68.99030000
H      -46.50330000     -32.17710000     -67.84180000
C      -47.61450000     -34.90480000     -70.44330000
H      -46.73010000     -34.46330000     -69.81520000
H      -48.35570000     -35.15820000     -69.68750000
C      -48.17470000     -33.94720000     -71.49350000
H      -48.99600000     -34.44610000     -72.04720000
H      -48.74380000     -33.15120000     -71.07360000
C      -46.55330000     -31.36210000     -69.88090000
H      -46.74420000     -30.32140000     -69.65010000
H      -47.49490000     -31.87580000     -70.10340000
C      -45.86130000     -31.45670000     -71.24250000
C      -44.94840000     -30.55200000     -71.71170000
C      -46.19910000     -32.36760000     -72.32800000
H      -44.64640000     -29.76160000     -71.08320000
C      -45.34140000     -32.28720000     -73.45240000
C      -47.07990000     -33.53130000     -72.51590000
C      -47.01320000     -34.04890000     -73.79430000
S      -44.32490000     -30.85140000     -73.36650000
S      -45.84890000     -33.20500000     -74.82720000
H      -47.63100000     -34.86930000     -74.12290000
