40
Properties=species:S:1:pos:R:3 #=T CELL(abcABC):=T 1.889726e+02=T 90.00000=T Traj:=T positionsangstrom=T Step:=T 0=T Bead:=T pbc="F F F"
C      -43.48890000     -35.90110000     -71.47990000
C      -44.31200000     -35.98940000     -70.35740000
C      -44.25220000     -35.05330000     -69.35090000
C      -43.45230000     -33.88890000     -69.49450000
C      -42.62720000     -33.81650000     -70.57570000
C      -42.59530000     -34.87490000     -71.54770000
H      -43.49500000     -36.65150000     -72.24120000
H      -44.84490000     -35.10820000     -68.45050000
H      -41.82080000     -33.06500000     -70.82240000
H      -41.89350000     -34.81660000     -72.35920000
C      -43.23840000     -32.81700000     -68.42700000
H      -42.15780000     -32.69480000     -68.30070000
H      -43.53850000     -33.20050000     -67.39920000
C      -45.28200000     -37.17830000     -70.24350000
H      -45.10860000     -38.07920000     -70.91120000
H      -45.61210000     -37.59560000     -69.29170000
S      -44.06270000     -31.14310000     -68.66390000
S      -46.90500000     -36.63030000     -71.04670000
C      -45.81350000     -31.79600000     -68.84620000
H      -45.74390000     -32.88990000     -68.95440000
H      -46.46800000     -31.57170000     -67.95720000
C      -47.23240000     -34.91080000     -70.42600000
H      -46.30020000     -34.40670000     -70.34600000
H      -47.72230000     -34.81240000     -69.37930000
C      -48.12040000     -34.10510000     -71.40300000
H      -48.81840000     -34.77340000     -71.79600000
H      -48.55710000     -33.26070000     -70.83820000
C      -46.54250000     -31.14050000     -70.02910000
H      -46.68010000     -30.03080000     -69.90220000
H      -47.56170000     -31.45940000     -69.97760000
C      -45.99420000     -31.27820000     -71.39870000
C      -44.89520000     -30.50990000     -71.78150000
C      -46.33090000     -32.28910000     -72.41790000
H      -44.36490000     -29.74360000     -71.19800000
C      -45.59480000     -32.06270000     -73.57320000
C      -47.38310000     -33.35050000     -72.51550000
C      -47.41750000     -33.86490000     -73.77250000
S      -44.22900000     -30.97230000     -73.34770000
S      -46.28650000     -33.04980000     -74.88930000
H      -48.13340000     -34.63180000     -74.12880000
