40
Properties=species:S:1:pos:R:3 #=T CELL(abcABC):=T 1.889726e+02=T 90.00000=T Traj:=T positionsangstrom=T Step:=T 0=T Bead:=T pbc="F F F"
C      -44.30340000     -34.99820000     -71.95460000
C      -44.71160000     -35.48850000     -70.74070000
C      -44.25570000     -34.85020000     -69.54040000
C      -43.36480000     -33.77180000     -69.61310000
C      -42.78530000     -33.45380000     -70.85690000
C      -43.27820000     -34.00010000     -72.05710000
H      -44.65940000     -35.56650000     -72.80220000
H      -44.64980000     -35.16930000     -68.57080000
H      -42.08540000     -32.57310000     -70.83030000
H      -42.78250000     -33.75560000     -72.98750000
C      -42.95650000     -32.98240000     -68.47030000
H      -42.01980000     -32.43600000     -68.73180000
H      -42.78380000     -33.46320000     -67.42160000
C      -45.55110000     -36.67940000     -70.60330000
H      -44.92760000     -37.58900000     -70.92320000
H      -45.73650000     -36.86670000     -69.47810000
S      -44.17450000     -31.52670000     -68.30800000
S      -47.12580000     -36.57050000     -71.47870000
C      -45.83970000     -32.19700000     -68.78120000
H      -45.74420000     -33.24600000     -69.14830000
H      -46.48420000     -32.26160000     -67.93130000
C      -48.03360000     -35.15970000     -70.58860000
H      -47.56910000     -35.07010000     -69.60440000
H      -49.10780000     -35.54770000     -70.41080000
C      -48.17270000     -34.00650000     -71.51710000
H      -48.94360000     -34.20710000     -72.21650000
H      -48.46680000     -33.15560000     -70.86600000
C      -46.57040000     -31.25040000     -69.81130000
H      -46.51980000     -30.16870000     -69.49920000
H      -47.65010000     -31.53400000     -69.85230000
C      -45.84390000     -31.37680000     -71.17670000
C      -44.78440000     -30.57970000     -71.57380000
C      -46.05520000     -32.42650000     -72.12700000
H      -44.50090000     -29.68170000     -71.01250000
C      -45.29960000     -32.24510000     -73.27510000
C      -47.03650000     -33.53670000     -72.41610000
C      -46.79960000     -34.19680000     -73.56460000
S      -44.18140000     -30.92430000     -73.15380000
S      -45.49630000     -33.43370000     -74.55800000
H      -47.51770000     -34.90450000     -74.00780000
