40
Properties=species:S:1:pos:R:3 #=T CELL(abcABC):=T 1.889726e+02=T 90.00000=T Traj:=T positionsangstrom=T Step:=T 0=T Bead:=T pbc="F F F"
C      -43.53460000     -35.55330000     -71.34510000
C      -44.34050000     -35.66170000     -70.22930000
C      -44.12540000     -34.79830000     -69.13500000
C      -43.05620000     -33.81080000     -69.20230000
C      -42.19110000     -33.87900000     -70.29450000
C      -42.38770000     -34.75380000     -71.34980000
H      -43.75520000     -36.10770000     -72.21750000
H      -44.74990000     -34.81950000     -68.25880000
H      -41.34130000     -33.13740000     -70.32280000
H      -41.82430000     -34.67010000     -72.30180000
C      -42.92670000     -32.65030000     -68.26790000
H      -41.89680000     -32.35810000     -68.08320000
H      -43.43030000     -32.96770000     -67.30990000
C      -45.44380000     -36.66060000     -70.10120000
H      -45.09930000     -37.68280000     -70.38730000
H      -45.81920000     -36.64990000     -69.12890000
S      -43.81760000     -31.11160000     -68.85800000
S      -46.82860000     -36.20190000     -71.17670000
C      -45.54280000     -31.88950000     -69.17320000
H      -45.39140000     -32.89900000     -69.60650000
H      -46.00910000     -32.00410000     -68.21310000
C      -47.71790000     -34.85800000     -70.37970000
H      -47.00810000     -34.44540000     -69.73640000
H      -48.43970000     -35.37010000     -69.70620000
C      -48.35820000     -33.88000000     -71.25110000
H      -49.25910000     -34.22470000     -71.78400000
H      -48.79550000     -33.05080000     -70.58640000
C      -46.40160000     -31.02410000     -70.06560000
H      -46.07280000     -30.03180000     -69.81000000
H      -47.47620000     -31.03000000     -69.95730000
C      -46.00960000     -31.28250000     -71.55310000
C      -44.95090000     -30.62320000     -72.10940000
C      -46.46490000     -32.41210000     -72.37840000
H      -44.48000000     -29.76240000     -71.68730000
C      -45.80720000     -32.46370000     -73.65720000
C      -47.45410000     -33.43580000     -72.36110000
C      -47.45120000     -34.28580000     -73.42520000
S      -44.56130000     -31.23230000     -73.75580000
S      -46.41780000     -33.67030000     -74.71400000
H      -48.31640000     -34.97550000     -73.65750000
