40
Properties=species:S:1:pos:R:3 #=T CELL(abcABC):=T 1.889726e+02=T 90.00000=T Traj:=T positionsangstrom=T Step:=T 0=T Bead:=T pbc="F F F"
C      -43.96830000     -35.40550000     -71.40720000
C      -44.27250000     -35.57900000     -70.09490000
C      -43.79910000     -34.66390000     -69.14230000
C      -43.03670000     -33.59250000     -69.55340000
C      -42.66110000     -33.46090000     -70.94880000
C      -43.12220000     -34.35920000     -71.84480000
H      -44.32470000     -36.15110000     -72.12830000
H      -44.05380000     -34.65950000     -68.08140000
H      -42.05400000     -32.60060000     -71.32740000
H      -42.74720000     -34.36950000     -72.90110000
C      -42.70040000     -32.48730000     -68.58280000
H      -41.63560000     -32.18640000     -68.66830000
H      -42.87130000     -32.70960000     -67.52130000
C      -45.15780000     -36.68680000     -69.67430000
H      -44.92550000     -37.71970000     -70.03490000
H      -45.13880000     -36.79850000     -68.58480000
S      -43.75390000     -30.97760000     -68.91120000
S      -46.88860000     -36.37170000     -70.35420000
C      -45.44990000     -31.74640000     -69.06590000
H      -45.41500000     -32.82660000     -69.12230000
H      -45.87830000     -31.47220000     -68.14990000
C      -47.23170000     -34.62600000     -70.07190000
H      -46.23390000     -34.09090000     -70.03180000
H      -47.75610000     -34.54040000     -69.12910000
C      -48.21730000     -33.98930000     -71.07560000
H      -49.02340000     -34.74550000     -71.17250000
H      -48.66800000     -33.08990000     -70.68920000
C      -46.36270000     -31.22740000     -70.19910000
H      -46.43360000     -30.12920000     -70.12640000
H      -47.39860000     -31.65940000     -70.12470000
C      -45.90500000     -31.51750000     -71.62500000
C      -44.89610000     -30.80010000     -72.27140000
C      -46.39550000     -32.62310000     -72.42780000
H      -44.36030000     -29.93650000     -71.88250000
C      -45.82270000     -32.58050000     -73.72720000
C      -47.48090000     -33.60580000     -72.34380000
C      -47.67010000     -34.27410000     -73.55680000
S      -44.48990000     -31.42880000     -73.89240000
S      -46.55700000     -33.74610000     -74.82390000
H      -48.38450000     -35.00680000     -73.82030000
