40
Properties=species:S:1:pos:R:3 #=T CELL(abcABC):=T 1.889726e+02=T 90.00000=T Traj:=T positionsangstrom=T Step:=T 0=T Bead:=T pbc="F F F"
C      -47.44020000     -36.59100000     -69.77290000
C      -47.21670000     -36.07150000     -71.07690000
C      -47.77710000     -34.84850000     -71.36330000
C      -48.41580000     -34.12800000     -70.39360000
C      -48.58510000     -34.66250000     -69.08180000
C      -48.08930000     -35.90030000     -68.76410000
H      -47.08750000     -37.60900000     -69.59670000
H      -47.65520000     -34.45560000     -72.38680000
H      -48.95910000     -34.08620000     -68.22240000
H      -48.13000000     -36.38680000     -67.78910000
C      -49.16740000     -32.81100000     -70.77500000
H      -50.25260000     -32.84550000     -70.52860000
H      -49.07180000     -32.69280000     -71.93050000
C      -46.35590000     -36.88820000     -72.02790000
H      -46.14910000     -37.87200000     -71.54630000
H      -46.69680000     -37.06870000     -73.04440000
S      -48.42940000     -31.30570000     -69.99450000
S      -44.70460000     -36.05840000     -72.39600000
C      -46.64580000     -31.44550000     -70.20340000
H      -46.11130000     -30.55110000     -69.95390000
H      -46.29440000     -32.25610000     -69.51190000
C      -44.09030000     -35.78230000     -70.69310000
H      -43.01850000     -36.06590000     -70.70960000
H      -44.69990000     -36.45470000     -70.05710000
C      -44.19740000     -34.30510000     -70.21030000
H      -45.25170000     -33.96440000     -70.13910000
H      -43.82380000     -34.31210000     -69.14410000
C      -46.22960000     -31.92640000     -71.64250000
H      -46.89940000     -31.50920000     -72.29400000
H      -46.39740000     -32.98770000     -71.86510000
C      -44.87130000     -31.56330000     -71.99600000
C      -44.55800000     -30.38770000     -72.74550000
C      -43.63950000     -32.32280000     -71.82190000
H      -45.27700000     -29.64020000     -72.96450000
C      -42.54650000     -31.73640000     -72.49780000
C      -43.31230000     -33.49590000     -71.05170000
C      -41.90110000     -33.73790000     -71.15310000
S      -42.90770000     -30.17380000     -73.15580000
S      -41.07090000     -32.63480000     -72.27860000
H      -41.36900000     -34.64910000     -70.87560000
