40
Properties=species:S:1:pos:R:3 #=T CELL(abcABC):=T 1.889726e+02=T 90.00000=T Traj:=T positionsangstrom=T Step:=T 0=T Bead:=T pbc="F F F"
C      -44.12230000     -35.26550000     -71.43480000
C      -44.41460000     -35.36760000     -70.05240000
C      -43.68490000     -34.59680000     -69.15400000
C      -42.89600000     -33.50000000     -69.61280000
C      -42.66700000     -33.40430000     -70.97900000
C      -43.19900000     -34.35260000     -71.86180000
H      -44.71920000     -35.80110000     -72.07800000
H      -43.86890000     -34.68460000     -68.10120000
H      -42.00820000     -32.64790000     -71.41010000
H      -42.96300000     -34.17860000     -72.89150000
C      -42.42850000     -32.37090000     -68.75280000
H      -41.45710000     -32.04210000     -69.22110000
H      -42.40430000     -32.63230000     -67.70810000
C      -45.38550000     -36.38060000     -69.46340000
H      -45.14970000     -37.39030000     -69.67300000
H      -45.49750000     -36.12380000     -68.38670000
S      -43.64630000     -30.96800000     -68.90290000
S      -47.00490000     -36.34960000     -70.41510000
C      -45.24200000     -31.79220000     -69.07680000
H      -45.14740000     -32.86930000     -69.22980000
H      -45.87500000     -31.77570000     -68.11630000
C      -47.70580000     -34.62070000     -69.90490000
H      -46.74820000     -34.15400000     -69.49000000
H      -48.37130000     -34.78030000     -69.08230000
C      -48.29170000     -33.89090000     -71.09270000
H      -49.23710000     -34.41710000     -71.46940000
H      -48.52190000     -32.88450000     -70.80500000
C      -46.13170000     -31.20150000     -70.20160000
H      -46.21520000     -30.15340000     -70.09040000
H      -47.12610000     -31.57770000     -69.88480000
C      -45.80850000     -31.63230000     -71.63920000
C      -44.93420000     -30.82410000     -72.36390000
C      -46.33330000     -32.72320000     -72.41840000
H      -44.51910000     -29.92670000     -71.99910000
C      -45.77840000     -32.68420000     -73.68570000
C      -47.36170000     -33.79200000     -72.27390000
C      -47.47820000     -34.54100000     -73.43000000
S      -44.74950000     -31.36780000     -74.04070000
S      -46.36790000     -33.99180000     -74.71000000
H      -48.36450000     -35.18390000     -73.64960000
