40
Properties=species:S:1:pos:R:3 #=T CELL(abcABC):=T 1.889726e+02=T 90.00000=T Traj:=T positionsangstrom=T Step:=T 0=T Bead:=T pbc="F F F"
C      -44.20150000     -35.19440000     -71.43550000
C      -44.50110000     -35.23440000     -70.07830000
C      -43.71080000     -34.40870000     -69.23850000
C      -42.80300000     -33.48090000     -69.78830000
C      -42.52940000     -33.49560000     -71.17600000
C      -43.21030000     -34.42580000     -71.96680000
H      -44.72020000     -35.87220000     -72.04420000
H      -43.87630000     -34.45470000     -68.18120000
H      -41.83430000     -32.81590000     -71.61430000
H      -43.00750000     -34.43100000     -72.99040000
C      -42.34810000     -32.35630000     -68.91570000
H      -41.37930000     -31.92940000     -69.25710000
H      -42.17910000     -32.72230000     -67.91930000
C      -45.50730000     -36.18620000     -69.51420000
H      -45.05650000     -37.21860000     -69.47080000
H      -45.68000000     -36.03960000     -68.42550000
S      -43.57660000     -31.01280000     -68.96270000
S      -47.12370000     -36.30630000     -70.30990000
C      -45.33040000     -31.62780000     -69.09130000
H      -45.32530000     -32.68870000     -69.01790000
H      -45.77060000     -31.29900000     -68.16780000
C      -47.91900000     -34.68580000     -69.79860000
H      -47.22270000     -34.06800000     -69.32380000
H      -48.81660000     -34.69390000     -69.16010000
C      -48.28470000     -33.84880000     -71.07560000
H      -49.20480000     -34.24510000     -71.50330000
H      -48.53570000     -32.83500000     -70.72030000
C      -46.23450000     -31.16020000     -70.26880000
H      -46.53630000     -30.07060000     -70.18650000
H      -47.17220000     -31.70990000     -70.04200000
C      -45.87990000     -31.57400000     -71.68590000
C      -44.94620000     -30.82150000     -72.38550000
C      -46.34620000     -32.68600000     -72.47400000
H      -44.36720000     -30.03750000     -71.91890000
C      -45.81130000     -32.71520000     -73.70030000
C      -47.23990000     -33.82660000     -72.15580000
C      -47.20640000     -34.70090000     -73.19650000
S      -44.76760000     -31.32920000     -74.06480000
S      -46.23670000     -34.23360000     -74.53340000
H      -47.79910000     -35.67500000     -73.11520000
