40
Properties=species:S:1:pos:R:3 #=T CELL(abcABC):=T 1.889726e+02=T 90.00000=T Traj:=T positionsangstrom=T Step:=T 0=T Bead:=T pbc="F F F"
C      -44.04260000     -35.83200000     -71.61290000
C      -44.51010000     -35.71370000     -70.26500000
C      -44.19320000     -34.58440000     -69.53310000
C      -43.33640000     -33.62160000     -70.10510000
C      -42.97940000     -33.68820000     -71.42940000
C      -43.34350000     -34.75640000     -72.22260000
H      -44.13190000     -36.68820000     -72.22240000
H      -44.52320000     -34.58380000     -68.50870000
H      -42.32460000     -32.88980000     -71.75460000
H      -43.17030000     -34.81120000     -73.30070000
C      -42.85020000     -32.47740000     -69.27640000
H      -41.77360000     -32.13880000     -69.37960000
H      -43.01370000     -32.73640000     -68.23920000
C      -45.43970000     -36.73050000     -69.60210000
H      -45.24600000     -37.71670000     -69.98160000
H      -45.36930000     -36.79600000     -68.53250000
S      -43.72020000     -30.81600000     -69.67760000
S      -47.21350000     -36.31360000     -69.96530000
C      -45.46040000     -31.09750000     -69.12790000
H      -45.55110000     -32.07070000     -68.72710000
H      -45.65260000     -30.52740000     -68.20920000
C      -47.35330000     -34.47220000     -69.60360000
H      -46.30620000     -34.13830000     -69.47380000
H      -47.78930000     -34.36730000     -68.65750000
C      -47.98590000     -33.65780000     -70.71780000
H      -49.01020000     -34.03040000     -70.84540000
H      -48.09580000     -32.64340000     -70.30200000
C      -46.44980000     -30.78360000     -70.27060000
H      -46.59370000     -29.68670000     -70.40390000
H      -47.49590000     -31.07960000     -69.92580000
C      -45.95610000     -31.27960000     -71.64670000
C      -45.04310000     -30.52590000     -72.42450000
C      -46.29520000     -32.51280000     -72.29770000
H      -44.78480000     -29.49730000     -72.28640000
C      -45.62130000     -32.71940000     -73.48470000
C      -47.11980000     -33.59190000     -71.95680000
C      -46.99280000     -34.67130000     -72.87480000
S      -44.48130000     -31.41090000     -73.83740000
S      -45.93330000     -34.25960000     -74.18240000
H      -47.51490000     -35.58310000     -72.89640000
