40
Properties=species:S:1:pos:R:3 #=T CELL(abcABC):=T 1.889726e+02=T 90.00000=T Traj:=T positionsangstrom=T Step:=T 0=T Bead:=T pbc="F F F"
C      -43.53760000     -35.66230000     -71.37830000
C      -44.17660000     -35.70430000     -70.13130000
C      -43.92710000     -34.66280000     -69.23900000
C      -43.06750000     -33.62440000     -69.55520000
C      -42.42460000     -33.60170000     -70.80190000
C      -42.65700000     -34.62670000     -71.71570000
H      -43.66930000     -36.41830000     -72.23610000
H      -44.39960000     -34.64180000     -68.25550000
H      -41.86080000     -32.73310000     -71.10110000
H      -42.22930000     -34.56990000     -72.76610000
C      -42.94530000     -32.48140000     -68.56360000
H      -41.92380000     -32.20900000     -68.44120000
H      -43.28950000     -32.80700000     -67.57050000
C      -45.22930000     -36.77250000     -69.80490000
H      -44.89660000     -37.77050000     -70.20950000
H      -45.25170000     -36.87450000     -68.74930000
S      -43.91440000     -30.99250000     -69.06160000
S      -46.93610000     -36.46970000     -70.42360000
C      -45.76810000     -31.54900000     -68.92310000
H      -45.81700000     -32.65330000     -68.85200000
H      -46.11860000     -31.01810000     -67.96290000
C      -47.05680000     -34.67720000     -70.21670000
H      -46.11800000     -34.23180000     -70.41670000
H      -47.27980000     -34.46190000     -69.09560000
C      -48.20210000     -33.97670000     -71.08750000
H      -49.06080000     -34.59450000     -71.19520000
H      -48.58770000     -33.08820000     -70.51550000
C      -46.44990000     -31.02370000     -70.21340000
H      -46.27310000     -29.94800000     -70.24600000
H      -47.55650000     -31.26710000     -70.20800000
C      -45.82500000     -31.54790000     -71.50680000
C      -44.67980000     -31.00830000     -72.08130000
C      -46.49530000     -32.50200000     -72.43020000
H      -44.11720000     -30.14320000     -71.71910000
C      -45.90310000     -32.44130000     -73.71500000
C      -47.54600000     -33.49320000     -72.38520000
C      -47.71280000     -34.14310000     -73.57610000
S      -44.41550000     -31.45370000     -73.77390000
S      -46.64560000     -33.51580000     -74.83600000
H      -48.28480000     -34.95310000     -73.77030000
