40
Properties=species:S:1:pos:R:3 #=T CELL(abcABC):=T 1.889726e+02=T 90.00000=T Traj:=T positionsangstrom=T Step:=T 0=T Bead:=T pbc="F F F"
C      -48.01030000     -30.76500000     -73.44980000
C      -47.71440000     -32.12690000     -73.81960000
C      -46.47250000     -32.55560000     -74.26400000
C      -45.49990000     -31.52750000     -74.33290000
C      -45.85250000     -30.18470000     -74.15800000
C      -47.08620000     -29.78110000     -73.65530000
H      -48.98940000     -30.55700000     -73.01290000
H      -46.19440000     -33.55520000     -74.14100000
H      -45.07700000     -29.39640000     -74.43810000
H      -47.25830000     -28.73930000     -73.40110000
C      -44.05130000     -31.90090000     -74.77960000
H      -43.46840000     -30.98350000     -75.17220000
H      -44.16150000     -32.60310000     -75.67670000
C      -48.77330000     -33.11930000     -73.44230000
H      -49.76470000     -32.85750000     -73.78910000
H      -48.70180000     -34.11600000     -73.93760000
S      -42.91810000     -32.85340000     -73.59520000
S      -48.94160000     -33.22640000     -71.57450000
C      -43.13370000     -31.81870000     -72.03280000
H      -42.11830000     -31.66700000     -71.60240000
H      -43.53440000     -30.86020000     -72.38260000
C      -47.43630000     -34.08510000     -70.91760000
H      -46.62570000     -33.81220000     -71.62230000
H      -47.49050000     -35.16200000     -70.97100000
C      -47.04590000     -33.59750000     -69.49220000
H      -46.77800000     -32.52160000     -69.62510000
H      -47.88850000     -33.74950000     -68.79360000
C      -44.14500000     -32.43200000     -71.15720000
H      -44.95420000     -32.75490000     -71.80050000
H      -44.50920000     -31.70030000     -70.43250000
C      -43.67520000     -33.73950000     -70.40450000
C      -42.47580000     -34.29800000     -70.45510000
C      -44.50120000     -34.32970000     -69.33610000
H      -41.66830000     -33.87610000     -71.01220000
C      -43.78980000     -35.27050000     -68.65110000
C      -45.86200000     -34.37800000     -68.90880000
C      -46.08000000     -35.25500000     -67.84580000
S      -42.15800000     -35.60210000     -69.34020000
S      -44.59860000     -35.99860000     -67.29760000
H      -47.04480000     -35.45510000     -67.36520000
