40
Properties=species:S:1:pos:R:3 #=T CELL(abcABC):=T 1.889726e+02=T 90.00000=T Traj:=T positionsangstrom=T Step:=T 0=T Bead:=T pbc="F F F"
C      -45.44540000     -37.54150000     -71.37320000
C      -46.35670000     -36.67150000     -72.00780000
C      -47.29040000     -35.86690000     -71.21510000
C      -47.11060000     -35.89350000     -69.85230000
C      -46.23380000     -36.86960000     -69.23070000
C      -45.43070000     -37.67700000     -69.97230000
H      -44.73790000     -38.15600000     -72.00790000
H      -48.01640000     -35.22790000     -71.71370000
H      -46.05360000     -36.83350000     -68.13590000
H      -44.81850000     -38.53210000     -69.48790000
C      -47.88500000     -35.00290000     -68.85040000
H      -47.23980000     -34.87320000     -67.96190000
H      -48.77670000     -35.57340000     -68.50120000
C      -46.53370000     -36.70570000     -73.51890000
H      -45.78730000     -37.31510000     -73.96590000
H      -47.50540000     -37.01380000     -73.67690000
S      -48.56760000     -33.39780000     -69.48890000
S      -46.51910000     -35.01350000     -74.30750000
C      -47.09010000     -32.19310000     -69.68590000
H      -47.44480000     -31.41380000     -70.35350000
H      -46.92690000     -31.81470000     -68.74360000
C      -44.93110000     -34.17190000     -73.50720000
H      -44.09780000     -34.55920000     -73.95620000
H      -45.05070000     -34.61830000     -72.52070000
C      -45.02190000     -32.64710000     -73.62530000
H      -45.07780000     -32.44540000     -74.68360000
H      -45.91520000     -32.28430000     -73.14810000
C      -45.84600000     -32.88550000     -70.29470000
H      -45.93910000     -33.19400000     -71.34500000
H      -45.65090000     -33.81890000     -69.82880000
C      -44.64420000     -31.98240000     -70.27700000
C      -44.09740000     -31.39570000     -69.13900000
C      -43.94840000     -31.55260000     -71.45200000
H      -44.61570000     -31.57920000     -68.20840000
C      -42.93820000     -30.62280000     -71.16200000
C      -43.96390000     -31.81210000     -72.94110000
C      -43.11490000     -30.94620000     -73.57500000
S      -42.77730000     -30.27200000     -69.44870000
S      -42.13530000     -29.90360000     -72.60420000
H      -42.93770000     -30.92750000     -74.63040000
