40
Properties=species:S:1:pos:R:3 #=T CELL(abcABC):=T 1.889726e+02=T 90.00000=T Traj:=T positionsangstrom=T Step:=T 0=T Bead:=T pbc="F F F"
C      -47.99220000     -30.62300000     -73.47880000
C      -47.74480000     -31.99120000     -73.58530000
C      -46.46260000     -32.44310000     -73.93600000
C      -45.45630000     -31.51630000     -74.20750000
C      -45.70360000     -30.15510000     -73.93500000
C      -46.93820000     -29.67050000     -73.48100000
H      -49.01610000     -30.24520000     -73.20640000
H      -46.37590000     -33.51490000     -74.23450000
H      -44.88240000     -29.43390000     -73.99340000
H      -47.17030000     -28.68290000     -73.14250000
C      -44.15340000     -31.84420000     -74.77480000
H      -43.53820000     -31.00200000     -74.89890000
H      -44.13230000     -32.43500000     -75.64830000
C      -48.68710000     -33.08460000     -73.30950000
H      -49.54280000     -32.82950000     -73.82220000
H      -48.22850000     -34.05970000     -73.55230000
S      -43.12460000     -32.83180000     -73.66910000
S      -49.13090000     -33.26310000     -71.43510000
C      -43.23250000     -31.84360000     -72.14370000
H      -42.26670000     -31.65920000     -71.68370000
H      -43.63730000     -30.85290000     -72.40170000
C      -47.51740000     -34.18470000     -70.89260000
H      -46.85700000     -34.18710000     -71.73990000
H      -47.84200000     -35.23050000     -70.61780000
C      -46.97910000     -33.60450000     -69.61830000
H      -46.73810000     -32.55850000     -69.63390000
H      -47.79170000     -33.51160000     -68.94270000
C      -44.18210000     -32.48900000     -71.18290000
H      -45.01200000     -32.59570000     -71.74140000
H      -44.49220000     -31.76030000     -70.36980000
C      -43.67920000     -33.76230000     -70.48810000
C      -42.35460000     -34.11960000     -70.46590000
C      -44.44070000     -34.58900000     -69.53560000
H      -41.59280000     -33.60750000     -70.97990000
C      -43.64730000     -35.50580000     -68.79010000
C      -45.85120000     -34.48470000     -69.06620000
C      -46.00390000     -35.29080000     -67.91990000
S      -41.99640000     -35.34320000     -69.29600000
S      -44.58820000     -36.25300000     -67.55210000
H      -46.89230000     -35.42530000     -67.43070000
