40
Properties=species:S:1:pos:R:3 #=T CELL(abcABC):=T 1.889726e+02=T 90.00000=T Traj:=T positionsangstrom=T Step:=T 0=T Bead:=T pbc="F F F"
C      -44.13670000     -36.41100000     -70.76670000
C      -45.54210000     -36.55340000     -70.97540000
C      -46.37700000     -35.95840000     -70.00140000
C      -45.89670000     -35.34680000     -68.81440000
C      -44.48250000     -35.19110000     -68.73670000
C      -43.61890000     -35.76470000     -69.66910000
H      -43.40870000     -36.84380000     -71.51440000
H      -47.47200000     -36.12650000     -70.13970000
H      -43.99080000     -34.86090000     -67.77210000
H      -42.58720000     -35.41830000     -69.63670000
C      -46.83670000     -34.78870000     -67.78810000
H      -46.26230000     -34.53240000     -66.89370000
H      -47.55170000     -35.55950000     -67.50950000
C      -46.09730000     -37.38970000     -72.12040000
H      -45.29700000     -38.00830000     -72.54430000
H      -46.94030000     -37.97630000     -71.81320000
S      -47.95370000     -33.40680000     -68.33520000
S      -46.73430000     -36.27990000     -73.55860000
C      -46.75680000     -32.10860000     -68.95810000
H      -47.15900000     -31.11280000     -68.72420000
H      -45.94720000     -32.28790000     -68.29340000
C      -45.57550000     -34.74420000     -73.30620000
H      -44.54740000     -34.93970000     -73.65580000
H      -45.45860000     -34.64300000     -72.16150000
C      -46.10860000     -33.37090000     -73.79770000
H      -46.37500000     -33.36310000     -74.89850000
H      -46.99000000     -33.08430000     -73.27490000
C      -46.33290000     -32.46390000     -70.38040000
H      -47.10280000     -32.30680000     -71.11380000
H      -46.10930000     -33.52610000     -70.32960000
C      -45.19710000     -31.61330000     -70.93000000
C      -44.57540000     -30.70110000     -70.16690000
C      -44.67680000     -31.70350000     -72.28330000
H      -44.57200000     -30.64480000     -69.10030000
C      -43.69030000     -30.71100000     -72.45930000
C      -45.09700000     -32.23920000     -73.60310000
C      -44.27870000     -31.74440000     -74.57180000
S      -43.38290000     -29.77800000     -71.01760000
S      -43.04800000     -30.57360000     -74.06680000
H      -44.24610000     -32.07100000     -75.59420000
