40
Properties=species:S:1:pos:R:3 #=T CELL(abcABC):=T 1.889726e+02=T 90.00000=T Traj:=T positionsangstrom=T Step:=T 0=T Bead:=T pbc="F F F"
C      -44.02970000     -36.22730000     -70.67830000
C      -45.42960000     -36.50000000     -70.66870000
C      -46.19750000     -35.98480000     -69.59880000
C      -45.56420000     -35.28430000     -68.58020000
C      -44.19250000     -35.03500000     -68.55970000
C      -43.39590000     -35.52650000     -69.60130000
H      -43.45200000     -36.69280000     -71.47550000
H      -47.27490000     -35.99310000     -69.60690000
H      -43.81590000     -34.41260000     -67.80060000
H      -42.35130000     -35.28170000     -69.64690000
C      -46.43340000     -34.63800000     -67.55330000
H      -45.88090000     -34.08030000     -66.77270000
H      -46.97170000     -35.48160000     -66.96640000
C      -46.06490000     -37.27510000     -71.77010000
H      -45.29460000     -37.85540000     -72.27970000
H      -46.80750000     -38.01300000     -71.39190000
S      -47.75530000     -33.56190000     -68.34740000
S      -46.98480000     -36.33070000     -73.15270000
C      -46.71300000     -32.17190000     -68.98800000
H      -47.36180000     -31.26730000     -68.97290000
H      -45.88880000     -31.99740000     -68.27420000
C      -45.67870000     -34.97890000     -73.17170000
H      -44.97930000     -35.29200000     -73.93150000
H      -45.08850000     -34.92490000     -72.22630000
C      -46.13100000     -33.60770000     -73.66990000
H      -46.42670000     -33.72950000     -74.70370000
H      -46.98600000     -33.26840000     -73.12210000
C      -46.23790000     -32.52820000     -70.45120000
H      -47.20090000     -32.61710000     -71.00640000
H      -45.73080000     -33.46520000     -70.45450000
C      -45.18050000     -31.51220000     -71.01520000
C      -44.57230000     -30.42650000     -70.40000000
C      -44.72370000     -31.65560000     -72.43080000
H      -44.54790000     -30.29420000     -69.30650000
C      -43.82960000     -30.65110000     -72.79030000
C      -45.09490000     -32.51330000     -73.56090000
C      -44.52900000     -32.00200000     -74.72870000
S      -43.41340000     -29.67720000     -71.44910000
S      -43.48960000     -30.57770000     -74.48970000
H      -44.52360000     -32.56880000     -75.62440000
