40
Properties=species:S:1:pos:R:3 #=T CELL(abcABC):=T 1.889726e+02=T 90.00000=T Traj:=T positionsangstrom=T Step:=T 0=T Bead:=T pbc="F F F"
C      -43.57680000     -36.62020000     -70.00930000
C      -44.95490000     -36.49620000     -70.23950000
C      -45.75050000     -35.79860000     -69.35920000
C      -45.20750000     -35.26060000     -68.17730000
C      -43.85980000     -35.33760000     -67.98050000
C      -43.04770000     -36.03120000     -68.88420000
H      -43.01730000     -37.12100000     -70.78860000
H      -46.86050000     -35.71660000     -69.51660000
H      -43.41270000     -34.85740000     -67.12210000
H      -42.03650000     -36.20870000     -68.65680000
C      -46.03700000     -34.46970000     -67.13710000
H      -45.42200000     -34.14140000     -66.28750000
H      -46.79590000     -35.08140000     -66.66950000
C      -45.61990000     -37.31060000     -71.42430000
H      -44.84260000     -37.61650000     -72.12490000
H      -46.10380000     -38.08320000     -70.79790000
S      -46.93440000     -33.00930000     -67.91350000
S      -46.82830000     -36.35540000     -72.33900000
C      -45.69230000     -32.34800000     -69.05900000
H      -45.44970000     -31.36180000     -68.69990000
H      -44.81180000     -32.97750000     -69.12070000
C      -45.78180000     -34.89880000     -72.82540000
H      -44.91050000     -35.33480000     -73.44230000
H      -45.30200000     -34.46460000     -71.93780000
C      -46.66390000     -33.80030000     -73.54480000
H      -47.17640000     -34.13760000     -74.47560000
H      -47.46890000     -33.49350000     -72.84480000
C      -46.28400000     -32.18930000     -70.49310000
H      -47.21670000     -31.68570000     -70.35200000
H      -46.59410000     -33.10770000     -70.87510000
C      -45.39520000     -31.43310000     -71.47360000
C      -44.73700000     -30.29080000     -71.14830000
C      -45.31220000     -31.61520000     -72.92250000
H      -44.72000000     -29.71440000     -70.24100000
C      -44.52590000     -30.60610000     -73.55520000
C      -45.73090000     -32.60750000     -73.88340000
C      -45.20940000     -32.39930000     -75.09910000
S      -43.95980000     -29.42570000     -72.44080000
S      -44.24100000     -30.95800000     -75.23620000
H      -45.53330000     -32.97420000     -75.93140000
