40
Properties=species:S:1:pos:R:3 #=T CELL(abcABC):=T 1.889726e+02=T 90.00000=T Traj:=T positionsangstrom=T Step:=T 0=T Bead:=T pbc="F F F"
C      -43.39610000     -36.63880000     -70.13240000
C      -44.78410000     -36.65700000     -70.10330000
C      -45.44880000     -35.94320000     -69.10380000
C      -44.78840000     -35.07890000     -68.21990000
C      -43.37480000     -35.07130000     -68.24140000
C      -42.69840000     -35.88380000     -69.21190000
H      -42.74910000     -37.00930000     -70.97110000
H      -46.51180000     -36.07650000     -69.02000000
H      -42.72250000     -34.33160000     -67.66590000
H      -41.61420000     -36.01680000     -69.15830000
C      -45.58240000     -34.27360000     -67.17170000
H      -44.91280000     -33.56570000     -66.65630000
H      -46.06610000     -34.95610000     -66.46680000
C      -45.70680000     -37.46970000     -71.08700000
H      -44.95640000     -37.99480000     -71.81280000
H      -46.43270000     -38.08550000     -70.53390000
S      -46.92060000     -33.31450000     -68.06410000
S      -46.77480000     -36.26280000     -72.00250000
C      -45.87920000     -32.12330000     -69.09090000
H      -45.87700000     -31.11250000     -68.68440000
H      -44.85310000     -32.53790000     -69.10040000
C      -45.67610000     -34.86050000     -72.76320000
H      -45.01630000     -35.24120000     -73.52440000
H      -45.14670000     -34.44640000     -71.95080000
C      -46.74510000     -33.87980000     -73.36290000
H      -47.22450000     -34.38380000     -74.21260000
H      -47.56100000     -33.64500000     -72.71030000
C      -46.43780000     -32.18180000     -70.51290000
H      -47.43630000     -31.86410000     -70.52720000
H      -46.48530000     -33.20180000     -70.87130000
C      -45.66640000     -31.28480000     -71.54710000
C      -44.87110000     -30.15940000     -71.22590000
C      -45.53590000     -31.51590000     -72.98670000
H      -44.79480000     -29.73060000     -70.21160000
C      -44.81910000     -30.53120000     -73.66160000
C      -45.93750000     -32.67220000     -73.78980000
C      -45.41210000     -32.56430000     -75.09450000
S      -44.18470000     -29.33930000     -72.57700000
S      -44.37330000     -31.11950000     -75.24980000
H      -45.55940000     -33.34890000     -75.87210000
