40
Properties=species:S:1:pos:R:3 #=T CELL(abcABC):=T 1.889726e+02=T 90.00000=T Traj:=T positionsangstrom=T Step:=T 0=T Bead:=T pbc="F F F"
C      -46.51820000     -35.61820000     -70.56950000
C      -46.20150000     -35.11770000     -69.30930000
C      -44.86220000     -35.04570000     -68.88930000
C      -43.85410000     -35.39310000     -69.82120000
C      -44.26470000     -35.91860000     -71.07710000
C      -45.53890000     -36.08560000     -71.45530000
H      -47.52090000     -35.46700000     -70.83140000
H      -44.56360000     -34.70410000     -67.87950000
H      -43.39970000     -36.25080000     -71.66280000
H      -45.76320000     -36.51300000     -72.38320000
C      -42.44880000     -35.04710000     -69.36320000
H      -41.81540000     -35.90390000     -69.63630000
H      -42.44530000     -34.85020000     -68.28680000
C      -47.40990000     -34.72290000     -68.39420000
H      -48.08360000     -35.51950000     -68.24800000
H      -47.10390000     -34.27460000     -67.41240000
S      -41.73880000     -33.56880000     -70.20780000
S      -48.54140000     -33.53850000     -69.33390000
C      -43.00620000     -32.24340000     -70.21360000
H      -44.02000000     -32.71880000     -70.13890000
H      -42.79890000     -31.55230000     -69.32930000
C      -47.70000000     -31.90280000     -69.30650000
H      -47.48510000     -31.77070000     -68.25420000
H      -48.40030000     -31.11900000     -69.46920000
C      -46.40500000     -31.96480000     -70.07000000
H      -45.75160000     -31.09130000     -69.78410000
H      -45.78320000     -32.77850000     -69.54840000
C      -42.96320000     -31.43710000     -71.49690000
H      -41.86360000     -31.27440000     -71.82070000
H      -43.10570000     -30.36240000     -71.18050000
C      -43.83920000     -31.93490000     -72.56610000
C      -43.33860000     -32.31110000     -73.81650000
C      -45.29920000     -32.24490000     -72.44910000
H      -42.24620000     -32.11150000     -74.07230000
C      -45.73730000     -32.52020000     -73.76580000
C      -46.39620000     -32.17940000     -71.58280000
C      -47.60080000     -32.21860000     -72.27690000
S      -44.48010000     -32.70570000     -74.99480000
S      -47.42300000     -32.59510000     -73.94460000
H      -48.56490000     -32.01760000     -71.84320000
