40
Properties=species:S:1:pos:R:3 #=T CELL(abcABC):=T 1.889726e+02=T 90.00000=T Traj:=T positionsangstrom=T Step:=T 0=T Bead:=T pbc="F F F"
C      -45.63210000     -33.07060000     -75.18600000
C      -44.57390000     -33.73900000     -74.52690000
C      -43.57730000     -33.01090000     -73.92100000
C      -43.63880000     -31.62230000     -73.88380000
C      -44.71970000     -30.96070000     -74.52350000
C      -45.76240000     -31.65370000     -75.15080000
H      -46.24310000     -33.62780000     -75.85620000
H      -42.77240000     -33.45190000     -73.40920000
H      -44.83670000     -29.91610000     -74.46520000
H      -46.56950000     -31.17500000     -75.68770000
C      -42.70910000     -30.73140000     -73.10860000
H      -42.55980000     -29.79040000     -73.69800000
H      -41.74620000     -31.20930000     -72.90020000
C      -44.34770000     -35.22390000     -74.63250000
H      -44.84390000     -35.61440000     -75.52360000
H      -43.29030000     -35.41690000     -74.70820000
S      -43.40670000     -30.14160000     -71.50100000
S      -44.97140000     -36.09110000     -73.10160000
C      -44.71220000     -31.29610000     -70.94130000
H      -45.36160000     -30.81890000     -70.26120000
H      -45.29500000     -31.66310000     -71.79350000
C      -46.65110000     -35.21570000     -73.00570000
H      -47.42470000     -35.87310000     -72.59670000
H      -47.07710000     -34.89600000     -73.98940000
C      -46.63200000     -34.06080000     -71.92680000
H      -45.61110000     -33.56710000     -71.90800000
H      -47.34350000     -33.25510000     -72.20370000
C      -44.07230000     -32.47860000     -70.27500000
H      -43.15520000     -31.95750000     -69.87880000
H      -43.86260000     -33.24760000     -71.02490000
C      -44.86860000     -33.18710000     -69.23380000
C      -44.57520000     -32.88810000     -67.93270000
C      -46.05780000     -33.95740000     -69.36660000
H      -43.76690000     -32.27500000     -67.56450000
C      -46.60560000     -34.23650000     -68.12560000
C      -46.80170000     -34.57430000     -70.44500000
C      -47.76570000     -35.45010000     -69.97970000
S      -45.85030000     -33.44240000     -66.83850000
S      -47.84940000     -35.39130000     -68.19450000
H      -48.51330000     -35.98940000     -70.47280000
