40
Properties=species:S:1:pos:R:3 #=T CELL(abcABC):=T 1.889726e+02=T 90.00000=T Traj:=T positionsangstrom=T Step:=T 0=T Bead:=T pbc="F F F"
C      -45.47040000     -33.12180000     -75.42160000
C      -44.49620000     -33.79750000     -74.68750000
C      -43.62640000     -33.13610000     -73.86910000
C      -43.64700000     -31.73440000     -73.81800000
C      -44.64150000     -31.04620000     -74.54220000
C      -45.56140000     -31.70540000     -75.32500000
H      -46.15290000     -33.72340000     -75.97780000
H      -42.85210000     -33.70980000     -73.39660000
H      -44.63300000     -29.95980000     -74.56950000
H      -46.39430000     -31.09510000     -75.70090000
C      -42.68100000     -30.98880000     -72.91350000
H      -41.93350000     -30.48170000     -73.47020000
H      -42.23820000     -31.74870000     -72.29580000
C      -44.55560000     -35.29590000     -74.73000000
H      -45.21840000     -35.74970000     -75.42630000
H      -43.55900000     -35.67090000     -74.95520000
S      -43.43220000     -29.80520000     -71.64540000
S      -44.94090000     -36.05260000     -73.07020000
C      -44.57730000     -31.07570000     -70.74210000
H      -44.98790000     -30.48330000     -69.97360000
H      -45.36870000     -31.17690000     -71.46740000
C      -46.58490000     -35.35030000     -72.78210000
H      -47.20640000     -36.14830000     -72.36760000
H      -46.86690000     -35.29020000     -73.81160000
C      -46.63370000     -34.08660000     -71.98960000
H      -45.73060000     -33.53060000     -72.14080000
H      -47.46170000     -33.53910000     -72.33810000
C      -44.03960000     -32.44200000     -70.15470000
H      -42.97860000     -32.46180000     -69.71420000
H      -44.02800000     -33.17370000     -70.90450000
C      -44.93900000     -33.00680000     -69.10740000
C      -44.75470000     -32.78490000     -67.75950000
C      -46.13530000     -33.80810000     -69.34330000
H      -44.00240000     -32.10080000     -67.49380000
C      -46.60340000     -34.34620000     -68.15710000
C      -46.89840000     -34.31700000     -70.52290000
C      -47.86190000     -35.21620000     -70.10210000
S      -45.72030000     -33.75670000     -66.71170000
S      -47.98880000     -35.42820000     -68.31530000
H      -48.46160000     -35.61590000     -70.88700000
