40
Properties=species:S:1:pos:R:3 #=T CELL(abcABC):=T 1.889726e+02=T 90.00000=T Traj:=T positionsangstrom=T Step:=T 0=T Bead:=T pbc="F F F"
C      -45.92400000     -33.00420000     -75.12050000
C      -44.82810000     -33.72680000     -74.56370000
C      -43.80880000     -32.99570000     -73.89710000
C      -43.74930000     -31.62960000     -73.96360000
C      -44.80830000     -30.86680000     -74.63660000
C      -45.91600000     -31.60390000     -75.13240000
H      -46.75100000     -33.44290000     -75.57610000
H      -42.97860000     -33.49120000     -73.32240000
H      -44.81750000     -29.79830000     -74.64630000
H      -46.79670000     -31.13970000     -75.64940000
C      -42.73550000     -30.85200000     -73.23120000
H      -42.33220000     -30.09270000     -73.80850000
H      -41.89740000     -31.52110000     -72.94560000
C      -44.66210000     -35.24820000     -74.67440000
H      -45.46200000     -35.61110000     -75.29490000
H      -43.68280000     -35.49590000     -75.05680000
S      -43.32260000     -29.99040000     -71.69530000
S      -44.83510000     -36.03170000     -72.98830000
C      -44.54300000     -31.12810000     -71.00790000
H      -44.83450000     -30.51420000     -70.21980000
H      -45.48420000     -31.06190000     -71.60700000
C      -46.58150000     -35.60380000     -72.69020000
H      -46.87990000     -36.51170000     -72.10510000
H      -47.16220000     -35.69450000     -73.56420000
C      -46.84550000     -34.34320000     -71.90280000
H      -46.27060000     -33.52300000     -72.28910000
H      -47.94500000     -34.00600000     -72.08930000
C      -44.16830000     -32.55410000     -70.54390000
H      -43.07730000     -32.49950000     -70.49040000
H      -44.25570000     -33.27800000     -71.36130000
C      -44.90240000     -33.09130000     -69.32140000
C      -44.51450000     -32.73130000     -68.02010000
C      -46.08370000     -33.85640000     -69.34420000
H      -43.66000000     -32.17440000     -67.59890000
C      -46.48450000     -34.20710000     -68.06480000
C      -46.81200000     -34.57260000     -70.39090000
C      -47.78970000     -35.39200000     -69.85530000
S      -45.42940000     -33.64150000     -66.79890000
S      -47.86530000     -35.31970000     -68.07780000
H      -48.54880000     -35.93980000     -70.37680000
