40
Properties=species:S:1:pos:R:3 #=T CELL(abcABC):=T 1.889726e+02=T 90.00000=T Traj:=T positionsangstrom=T Step:=T 0=T Bead:=T pbc="F F F"
C      -45.76450000     -33.06590000     -75.39930000
C      -44.80700000     -33.84210000     -74.72560000
C      -43.85370000     -33.12800000     -74.00450000
C      -43.90730000     -31.69560000     -73.87960000
C      -44.91140000     -30.93010000     -74.46090000
C      -45.84510000     -31.69060000     -75.18950000
H      -46.58920000     -33.47440000     -75.91010000
H      -43.03530000     -33.57130000     -73.49770000
H      -44.92210000     -29.85460000     -74.35630000
H      -46.57910000     -31.05740000     -75.66580000
C      -42.84650000     -31.04350000     -73.03790000
H      -42.23670000     -30.36440000     -73.72500000
H      -42.16160000     -31.77420000     -72.62060000
C      -44.83650000     -35.34100000     -74.72950000
H      -45.64480000     -35.96170000     -75.24170000
H      -43.90650000     -35.76500000     -75.17890000
S      -43.39230000     -29.88470000     -71.68630000
S      -44.78330000     -36.00380000     -72.96070000
C      -44.70420000     -31.11100000     -70.95880000
H      -45.22720000     -30.57200000     -70.13250000
H      -45.48850000     -31.44910000     -71.70890000
C      -46.50960000     -35.70030000     -72.42500000
H      -46.72370000     -36.46570000     -71.63710000
H      -47.05820000     -35.81810000     -73.37500000
C      -46.82930000     -34.28270000     -71.90050000
H      -46.04780000     -33.63520000     -72.23860000
H      -47.80980000     -33.88540000     -72.23300000
C      -44.02930000     -32.35250000     -70.44870000
H      -43.07940000     -32.14200000     -69.89100000
H      -43.83040000     -32.99730000     -71.26680000
C      -44.81160000     -33.09230000     -69.40820000
C      -44.42170000     -32.85810000     -68.06740000
C      -45.97230000     -33.92080000     -69.40880000
H      -43.55110000     -32.36220000     -67.71690000
C      -46.36340000     -34.34070000     -68.09020000
C      -46.89150000     -34.41440000     -70.43680000
C      -47.96880000     -35.05020000     -69.83840000
S      -45.45320000     -33.54980000     -66.85090000
S      -47.78550000     -35.34550000     -68.08440000
H      -48.77010000     -35.59820000     -70.32890000
