40
Properties=species:S:1:pos:R:3 #=T CELL(abcABC):=T 1.889726e+02=T 90.00000=T Traj:=T positionsangstrom=T Step:=T 0=T Bead:=T pbc="F F F"
C      -46.38970000     -35.77420000     -70.80940000
C      -46.08180000     -35.19470000     -69.58990000
C      -44.80130000     -34.94580000     -69.14550000
C      -43.78670000     -35.29730000     -70.01560000
C      -44.06120000     -35.80640000     -71.28230000
C      -45.36020000     -36.06350000     -71.69390000
H      -47.44110000     -35.88810000     -71.10850000
H      -44.59350000     -34.38060000     -68.22560000
H      -43.23450000     -36.15330000     -71.89630000
H      -45.50870000     -36.38590000     -72.68330000
C      -42.33080000     -34.90480000     -69.62980000
H      -41.63970000     -35.75650000     -69.71150000
H      -42.29300000     -34.56320000     -68.52550000
C      -47.23850000     -34.71760000     -68.69560000
H      -47.91170000     -35.57620000     -68.28580000
H      -46.93160000     -34.16120000     -67.79150000
S      -41.79280000     -33.45820000     -70.58460000
S      -48.48210000     -33.64140000     -69.56020000
C      -43.01680000     -32.28140000     -70.02990000
H      -43.98910000     -32.87890000     -70.03440000
H      -42.71710000     -31.89000000     -69.03970000
C      -47.87780000     -31.97540000     -69.26910000
H      -47.87450000     -31.76000000     -68.22530000
H      -48.60490000     -31.24440000     -69.77100000
C      -46.55320000     -31.76460000     -69.98770000
H      -46.34200000     -30.65450000     -69.82530000
H      -45.79880000     -32.33470000     -69.46540000
C      -43.22070000     -31.20380000     -71.10020000
H      -42.34230000     -30.69710000     -71.50210000
H      -43.86830000     -30.35440000     -70.61770000
C      -44.02160000     -31.78620000     -72.20460000
C      -43.39230000     -32.16670000     -73.33550000
C      -45.42220000     -32.16860000     -72.31100000
H      -42.33870000     -31.97200000     -73.44940000
C      -45.75010000     -32.68480000     -73.55330000
C      -46.57830000     -32.01930000     -71.45340000
C      -47.74680000     -32.11590000     -72.27100000
S      -44.32550000     -32.95640000     -74.48930000
S      -47.44490000     -32.78850000     -73.85700000
H      -48.74480000     -32.07830000     -71.85120000
