40
Properties=species:S:1:pos:R:3 #=T CELL(abcABC):=T 1.889726e+02=T 90.00000=T Traj:=T positionsangstrom=T Step:=T 0=T Bead:=T pbc="F F F"
C      -46.89590000     -36.52520000     -69.36470000
C      -46.99420000     -36.36800000     -70.72390000
C      -47.86900000     -35.41980000     -71.27600000
C      -48.50870000     -34.49920000     -70.48050000
C      -48.35870000     -34.56990000     -69.09840000
C      -47.55830000     -35.57130000     -68.54500000
H      -46.35070000     -37.38980000     -68.93630000
H      -48.02560000     -35.38920000     -72.40380000
H      -48.68500000     -33.72600000     -68.44460000
H      -47.54770000     -35.61060000     -67.42650000
C      -49.29940000     -33.41310000     -71.15360000
H      -50.34470000     -33.33060000     -70.96600000
H      -49.10320000     -33.57700000     -72.18640000
C      -46.14170000     -37.28920000     -71.61660000
H      -45.83400000     -38.10880000     -70.93360000
H      -46.64810000     -37.60160000     -72.47740000
S      -48.84210000     -31.66040000     -70.73580000
S      -44.68730000     -36.43650000     -72.27400000
C      -47.04650000     -31.46950000     -70.81860000
H      -46.80390000     -30.39370000     -70.85940000
H      -46.54230000     -31.75210000     -69.87390000
C      -43.86440000     -35.67390000     -70.78010000
H      -42.77430000     -35.77360000     -70.86120000
H      -44.28460000     -36.32550000     -69.94270000
C      -44.23260000     -34.19560000     -70.41400000
H      -45.23530000     -34.05680000     -70.84190000
H      -44.32360000     -34.15600000     -69.31370000
C      -46.31640000     -31.95210000     -72.21480000
H      -46.96580000     -31.67160000     -73.09790000
H      -46.35820000     -33.06830000     -72.22570000
C      -44.88860000     -31.45690000     -72.32040000
C      -44.57210000     -30.42610000     -73.16810000
C      -43.73510000     -32.05410000     -71.73550000
H      -45.30290000     -30.02860000     -73.85620000
C      -42.56950000     -31.35660000     -72.08350000
C      -43.28530000     -33.20530000     -70.94780000
C      -41.95240000     -33.26470000     -70.74560000
S      -42.90580000     -30.10010000     -73.24410000
S      -41.05190000     -31.91920000     -71.42060000
H      -41.43320000     -33.98300000     -70.11530000
