40
Properties=species:S:1:pos:R:3 #=T CELL(abcABC):=T 1.889726e+02=T 90.00000=T Traj:=T positionsangstrom=T Step:=T 0=T Bead:=T pbc="F F F"
C      -46.16700000     -36.05210000     -70.97550000
C      -46.02280000     -35.54640000     -69.68420000
C      -44.75750000     -35.18540000     -69.24700000
C      -43.62650000     -35.32640000     -70.12460000
C      -43.82400000     -35.68760000     -71.47700000
C      -45.08670000     -36.15410000     -71.84490000
H      -47.19650000     -36.27830000     -71.27520000
H      -44.61280000     -35.10380000     -68.15840000
H      -42.99460000     -35.89500000     -72.10590000
H      -45.22650000     -36.46670000     -72.86630000
C      -42.27300000     -34.81260000     -69.77000000
H      -41.54080000     -35.50650000     -70.13450000
H      -42.19180000     -34.81190000     -68.65520000
C      -47.26180000     -35.31110000     -68.82510000
H      -47.65790000     -36.26560000     -68.48700000
H      -47.07600000     -34.81400000     -67.94160000
S      -41.99670000     -33.18440000     -70.47320000
S      -48.64440000     -34.40770000     -69.78940000
C      -43.24930000     -32.06660000     -69.60820000
H      -44.02000000     -32.74230000     -69.27600000
H      -42.71900000     -31.62730000     -68.76260000
C      -48.20070000     -32.63900000     -69.40840000
H      -48.34550000     -32.44690000     -68.28500000
H      -49.00430000     -32.01500000     -69.84670000
C      -46.90800000     -32.04240000     -69.98350000
H      -46.74280000     -30.99260000     -69.74300000
H      -46.13310000     -32.59710000     -69.50380000
C      -43.67210000     -30.94180000     -70.51900000
H      -42.75360000     -30.29390000     -70.63860000
H      -44.45600000     -30.29200000     -70.16050000
C      -44.18270000     -31.38340000     -71.84480000
C      -43.44320000     -31.28940000     -72.95590000
C      -45.51690000     -31.93530000     -72.18000000
H      -42.41690000     -30.90290000     -72.95160000
C      -45.55030000     -32.26960000     -73.55070000
C      -46.73280000     -32.25700000     -71.52110000
C      -47.69360000     -32.76680000     -72.38030000
S      -44.08240000     -31.92170000     -74.44090000
S      -47.06680000     -32.93280000     -73.99800000
H      -48.77850000     -32.85080000     -72.21040000
