40
Properties=species:S:1:pos:R:3 #=T CELL(abcABC):=T 1.889726e+02=T 90.00000=T Traj:=T positionsangstrom=T Step:=T 0=T Bead:=T pbc="F F F"
C      -46.24340000     -36.06650000     -71.04490000
C      -46.15010000     -35.61900000     -69.75620000
C      -44.88700000     -35.18550000     -69.32060000
C      -43.79380000     -35.07800000     -70.21280000
C      -43.87250000     -35.68550000     -71.47530000
C      -45.16390000     -36.00470000     -71.97690000
H      -47.20990000     -36.36830000     -71.45640000
H      -44.84560000     -34.62230000     -68.39220000
H      -43.05640000     -35.53460000     -72.21750000
H      -45.25500000     -36.51120000     -72.90790000
C      -42.49570000     -34.57780000     -69.65870000
H      -41.69100000     -35.34890000     -69.78830000
H      -42.53150000     -34.29210000     -68.61020000
C      -47.42550000     -35.59090000     -68.87930000
H      -47.83930000     -36.68150000     -68.86630000
H      -47.17050000     -35.26530000     -67.85660000
S      -41.92120000     -33.09790000     -70.66070000
S      -48.73040000     -34.51410000     -69.63720000
C      -43.04280000     -31.91090000     -69.75220000
H      -43.75540000     -32.57200000     -69.20870000
H      -42.45670000     -31.45640000     -68.91510000
C      -48.16960000     -32.77370000     -69.39510000
H      -48.17120000     -32.71090000     -68.34140000
H      -48.98100000     -32.17710000     -69.82490000
C      -46.78810000     -32.26050000     -69.91960000
H      -46.64510000     -31.26050000     -69.42870000
H      -45.95670000     -32.84250000     -69.51310000
C      -43.71340000     -30.82970000     -70.54400000
H      -43.01590000     -29.96970000     -70.70080000
H      -44.59070000     -30.37980000     -69.93330000
C      -44.24940000     -31.29330000     -71.81860000
C      -43.36840000     -31.24140000     -72.83810000
C      -45.44740000     -31.99890000     -72.16210000
H      -42.44670000     -30.68560000     -72.86770000
C      -45.50830000     -32.24890000     -73.54400000
C      -46.63140000     -32.38410000     -71.44830000
C      -47.58070000     -32.90840000     -72.31710000
S      -44.01130000     -31.86450000     -74.36650000
S      -46.98070000     -32.97060000     -73.98190000
H      -48.59590000     -33.31560000     -71.98380000
