40
Properties=species:S:1:pos:R:3 #=T CELL(abcABC):=T 1.889726e+02=T 90.00000=T Traj:=T positionsangstrom=T Step:=T 0=T Bead:=T pbc="F F F"
C      -46.21070000     -35.78180000     -71.05330000
C      -46.03660000     -35.50440000     -69.68150000
C      -44.81680000     -35.17320000     -69.06490000
C      -43.65020000     -35.13610000     -69.93440000
C      -43.85170000     -35.45270000     -71.30180000
C      -45.08390000     -35.80780000     -71.87540000
H      -47.18160000     -36.09350000     -71.46090000
H      -44.77830000     -34.82170000     -68.06730000
H      -42.96020000     -35.50540000     -71.95450000
H      -45.10510000     -36.06830000     -72.94000000
C      -42.32820000     -34.68380000     -69.43040000
H      -41.51800000     -35.44810000     -69.59440000
H      -42.27780000     -34.59710000     -68.33350000
C      -47.31830000     -35.55620000     -68.85430000
H      -47.87650000     -36.50950000     -69.06040000
H      -47.12730000     -35.45550000     -67.75970000
S      -41.70650000     -33.17280000     -70.34060000
S      -48.61150000     -34.32920000     -69.46770000
C      -42.94020000     -31.85020000     -69.80250000
H      -43.71120000     -32.24320000     -69.12990000
H      -42.40990000     -31.18720000     -69.13310000
C      -47.88230000     -32.60630000     -69.25470000
H      -47.76610000     -32.50310000     -68.16440000
H      -48.69730000     -31.96740000     -69.50760000
C      -46.61540000     -32.23460000     -69.98640000
H      -46.46430000     -31.17270000     -69.69900000
H      -45.73510000     -32.88850000     -69.62940000
C      -43.64890000     -30.94920000     -70.84880000
H      -42.89240000     -30.30530000     -71.24760000
H      -44.37940000     -30.27760000     -70.44980000
C      -44.08700000     -31.70980000     -72.10160000
C      -43.34980000     -31.74520000     -73.26430000
C      -45.46370000     -32.09940000     -72.38890000
H      -42.36380000     -31.39380000     -73.41140000
C      -45.75090000     -32.35560000     -73.70990000
C      -46.74660000     -32.26990000     -71.53070000
C      -47.82810000     -32.50040000     -72.32080000
S      -44.25630000     -32.34110000     -74.62940000
S      -47.48310000     -32.72140000     -74.06170000
H      -48.78960000     -32.69510000     -71.88130000
