40
Properties=species:S:1:pos:R:3 #=T CELL(abcABC):=T 1.889726e+02=T 90.00000=T Traj:=T positionsangstrom=T Step:=T 0=T Bead:=T pbc="F F F"
C      -45.72770000     -35.48670000     -71.54410000
C      -46.02590000     -35.35170000     -70.19820000
C      -44.96360000     -35.07910000     -69.25440000
C      -43.68080000     -34.74410000     -69.67490000
C      -43.42490000     -34.72590000     -71.09870000
C      -44.43260000     -35.06380000     -71.94040000
H      -46.42190000     -35.67460000     -72.32150000
H      -45.37780000     -34.84620000     -68.28810000
H      -42.42770000     -34.64450000     -71.56230000
H      -44.25090000     -35.19900000     -73.03850000
C      -42.66060000     -34.25020000     -68.63570000
H      -41.64840000     -34.61380000     -68.72650000
H      -43.15810000     -34.41250000     -67.59710000
C      -47.40580000     -35.80760000     -69.64050000
H      -47.46350000     -36.91310000     -69.79870000
H      -47.54430000     -35.63390000     -68.57790000
S      -42.36900000     -32.44470000     -68.87920000
S      -48.88320000     -34.94450000     -70.57960000
C      -44.07200000     -31.69550000     -68.99510000
H      -44.80990000     -32.53580000     -68.94340000
H      -44.11790000     -31.03790000     -68.12240000
C      -48.82060000     -33.15250000     -70.35820000
H      -49.15030000     -32.98020000     -69.30800000
H      -49.62680000     -32.69120000     -70.91270000
C      -47.39170000     -32.39760000     -70.61130000
H      -47.53420000     -31.35050000     -70.44420000
H      -46.73370000     -32.71860000     -69.86910000
C      -44.30730000     -30.88020000     -70.42770000
H      -43.49380000     -30.15990000     -70.47660000
H      -45.20490000     -30.25980000     -70.32680000
C      -44.28590000     -31.58210000     -71.71870000
C      -43.16680000     -31.51400000     -72.50700000
C      -45.42420000     -32.23230000     -72.34800000
H      -42.20650000     -31.24120000     -72.12670000
C      -45.10540000     -32.63710000     -73.63310000
C      -46.82670000     -32.56110000     -71.97670000
C      -47.52430000     -33.04610000     -73.05670000
S      -43.41160000     -32.42910000     -74.04750000
S      -46.53880000     -33.22640000     -74.47080000
H      -48.54530000     -33.35250000     -73.12430000
