40
Properties=species:S:1:pos:R:3 #=T CELL(abcABC):=T 1.889726e+02=T 90.00000=T Traj:=T positionsangstrom=T Step:=T 0=T Bead:=T pbc="F F F"
C      -45.93460000     -35.96490000     -71.19520000
C      -45.91050000     -35.42380000     -69.88500000
C      -44.74680000     -34.93630000     -69.33880000
C      -43.53950000     -35.01020000     -70.08880000
C      -43.57950000     -35.48520000     -71.43640000
C      -44.78180000     -35.98930000     -71.98440000
H      -46.88800000     -36.45880000     -71.53660000
H      -44.82470000     -34.30620000     -68.50000000
H      -42.68720000     -35.53420000     -72.05290000
H      -44.78930000     -36.23730000     -73.07250000
C      -42.22960000     -34.41140000     -69.57590000
H      -41.32500000     -34.79040000     -70.07100000
H      -42.26080000     -34.54620000     -68.49360000
C      -47.17680000     -35.31340000     -69.03740000
H      -47.32400000     -36.27350000     -68.60610000
H      -46.99800000     -34.50870000     -68.24870000
S      -42.07910000     -32.61280000     -70.07320000
S      -48.70030000     -34.88130000     -70.02280000
C      -43.57820000     -31.81280000     -69.36440000
H      -44.30060000     -32.64190000     -69.21060000
H      -43.47940000     -31.35350000     -68.36780000
C      -48.61390000     -33.10200000     -69.79830000
H      -48.76490000     -32.77700000     -68.74660000
H      -49.42910000     -32.66190000     -70.37110000
C      -47.30920000     -32.50430000     -70.26790000
H      -47.39310000     -31.43280000     -70.04760000
H      -46.49510000     -32.81240000     -69.56610000
C      -44.23430000     -30.77330000     -70.28180000
H      -43.48770000     -30.04120000     -70.45620000
H      -45.05300000     -30.31330000     -69.66390000
C      -44.39550000     -31.34150000     -71.65900000
C      -43.49240000     -31.02700000     -72.65120000
C      -45.55970000     -32.10250000     -72.12110000
H      -42.59370000     -30.40400000     -72.48480000
C      -45.36890000     -32.43210000     -73.48040000
C      -46.77250000     -32.68370000     -71.65440000
C      -47.56580000     -33.18740000     -72.63630000
S      -43.90900000     -31.81480000     -74.16040000
S      -46.78270000     -33.23850000     -74.21010000
H      -48.53090000     -33.57310000     -72.35290000
