40
Properties=species:S:1:pos:R:3 #=T CELL(abcABC):=T 1.889726e+02=T 90.00000=T Traj:=T positionsangstrom=T Step:=T 0=T Bead:=T pbc="F F F"
C      -42.09820000     -34.81790000     -71.13720000
C      -42.81130000     -35.32700000     -70.01670000
C      -43.02600000     -34.57200000     -68.83160000
C      -42.65670000     -33.23530000     -68.89030000
C      -41.91460000     -32.71950000     -69.96770000
C      -41.61670000     -33.54430000     -71.09010000
H      -42.04980000     -35.50270000     -71.96040000
H      -43.46580000     -34.89450000     -67.96860000
H      -41.60580000     -31.71480000     -70.00240000
H      -41.08670000     -33.18390000     -71.98920000
C      -43.09240000     -32.33270000     -67.77480000
H      -42.60370000     -31.34840000     -67.82490000
H      -42.89980000     -32.78290000     -66.78440000
C      -43.50130000     -36.66480000     -70.18000000
H      -43.09800000     -37.25410000     -71.01510000
H      -43.34860000     -37.22060000     -69.23600000
S      -44.89550000     -32.08710000     -67.86670000
S      -45.33740000     -36.51350000     -70.23490000
C      -45.00010000     -31.71500000     -69.62580000
H      -44.86730000     -30.65610000     -69.69530000
H      -44.10980000     -32.17640000     -70.12460000
C      -45.62050000     -35.78000000     -71.85380000
H      -45.34180000     -36.41050000     -72.68270000
H      -45.00080000     -34.90670000     -71.89630000
C      -47.04900000     -35.28350000     -71.91890000
H      -47.80440000     -36.08650000     -72.15300000
H      -47.51150000     -34.99310000     -70.97110000
C      -46.34290000     -32.29690000     -70.18980000
H      -47.23560000     -31.96150000     -69.64830000
H      -46.33340000     -33.36700000     -70.23080000
C      -46.66820000     -31.88270000     -71.60090000
C      -46.64570000     -30.63040000     -72.02080000
C      -47.02700000     -32.75880000     -72.76250000
H      -46.36340000     -29.74560000     -71.46230000
C      -47.21410000     -32.07090000     -73.98300000
C      -47.13920000     -34.17330000     -73.01260000
C      -47.41210000     -34.48690000     -74.26320000
S      -47.09880000     -30.30260000     -73.74020000
S      -47.57010000     -33.06450000     -75.36370000
H      -47.53260000     -35.48640000     -74.58700000
