40
Properties=species:S:1:pos:R:3 #=T CELL(abcABC):=T 1.889726e+02=T 90.00000=T Traj:=T positionsangstrom=T Step:=T 0=T Bead:=T pbc="F F F"
C      -45.69110000     -36.01800000     -71.55050000
C      -46.24910000     -35.43280000     -70.39590000
C      -45.32020000     -34.90180000     -69.38430000
C      -43.95940000     -34.92560000     -69.55460000
C      -43.45040000     -35.46490000     -70.73180000
C      -44.31640000     -36.00590000     -71.69450000
H      -46.29570000     -36.43110000     -72.33620000
H      -45.75290000     -34.45880000     -68.51090000
H      -42.39350000     -35.61400000     -71.01430000
H      -43.85610000     -36.36590000     -72.63300000
C      -43.11210000     -34.36940000     -68.46890000
H      -42.15710000     -34.80270000     -68.24190000
H      -43.61680000     -34.37620000     -67.51090000
C      -47.74790000     -35.47400000     -70.04830000
H      -47.97770000     -36.53170000     -69.98000000
H      -47.81200000     -35.03650000     -69.03700000
S      -42.71730000     -32.58680000     -68.92240000
S      -48.79140000     -34.85620000     -71.37460000
C      -44.37750000     -31.78910000     -68.80030000
H      -45.16740000     -32.55990000     -68.75060000
H      -44.39400000     -31.17470000     -67.92500000
C      -48.93780000     -33.05170000     -70.89930000
H      -49.64090000     -33.01820000     -70.03080000
H      -49.39570000     -32.57770000     -71.73910000
C      -47.51800000     -32.38470000     -70.83520000
H      -47.67420000     -31.32230000     -70.43230000
H      -46.85710000     -32.90530000     -70.14020000
C      -44.66410000     -30.77550000     -69.96530000
H      -43.99210000     -29.91280000     -69.78440000
H      -45.66940000     -30.40740000     -70.06760000
C      -44.36570000     -31.34390000     -71.32400000
C      -43.08810000     -31.39700000     -71.92190000
C      -45.37420000     -31.89350000     -72.23700000
H      -42.13490000     -31.17560000     -71.37080000
C      -44.82560000     -32.33110000     -73.45350000
C      -46.74300000     -32.43400000     -72.08790000
C      -47.15980000     -33.02620000     -73.23130000
S      -43.05980000     -32.03860000     -73.55570000
S      -45.91250000     -33.20550000     -74.53160000
H      -48.18190000     -33.29650000     -73.43680000
