40
Properties=species:S:1:pos:R:3 #=T CELL(abcABC):=T 1.889726e+02=T 90.00000=T Traj:=T positionsangstrom=T Step:=T 0=T Bead:=T pbc="F F F"
C      -45.84910000     -35.99380000     -71.47900000
C      -46.41320000     -35.64120000     -70.23560000
C      -45.48920000     -35.07440000     -69.27670000
C      -44.11640000     -35.00230000     -69.48020000
C      -43.61990000     -35.52540000     -70.68110000
C      -44.44840000     -35.95810000     -71.65090000
H      -46.42100000     -36.35180000     -72.34000000
H      -45.85530000     -34.74650000     -68.28130000
H      -42.53320000     -35.60070000     -70.82110000
H      -43.94700000     -36.41940000     -72.56020000
C      -43.09620000     -34.46670000     -68.51830000
H      -42.10460000     -34.79620000     -68.76490000
H      -43.40490000     -34.50590000     -67.46520000
C      -47.86670000     -35.60210000     -69.95820000
H      -48.44690000     -36.54000000     -69.82130000
H      -48.13700000     -35.07440000     -69.10080000
S      -42.72160000     -32.51970000     -68.84140000
S      -48.87330000     -34.92360000     -71.40770000
C      -44.44900000     -31.76540000     -68.70940000
H      -45.11970000     -32.72530000     -68.55850000
H      -44.52240000     -31.25040000     -67.75760000
C      -48.95150000     -33.14320000     -71.12190000
H      -49.44420000     -32.87200000     -70.20210000
H      -49.60220000     -32.74030000     -71.89640000
C      -47.62410000     -32.27090000     -71.10780000
H      -48.00390000     -31.27660000     -71.04450000
H      -47.00450000     -32.38380000     -70.23480000
C      -44.72770000     -30.81080000     -69.94320000
H      -44.24380000     -29.86580000     -69.73370000
H      -45.83080000     -30.61180000     -69.93260000
C      -44.42440000     -31.35530000     -71.31070000
C      -43.12080000     -31.20360000     -71.82740000
C      -45.22530000     -32.20920000     -72.19710000
H      -42.32250000     -30.69260000     -71.30160000
C      -44.57770000     -32.49090000     -73.39180000
C      -46.66210000     -32.48870000     -72.25650000
C      -46.96940000     -32.96360000     -73.48180000
S      -42.93580000     -31.92090000     -73.42970000
S      -45.61490000     -32.97530000     -74.67000000
H      -47.99190000     -33.29160000     -73.74130000
