40
Properties=species:S:1:pos:R:3 #=T CELL(abcABC):=T 1.889726e+02=T 90.00000=T Traj:=T positionsangstrom=T Step:=T 0=T Bead:=T pbc="F F F"
C      -41.97870000     -34.99940000     -70.93820000
C      -42.94970000     -35.42020000     -69.97870000
C      -43.31940000     -34.50800000     -69.00740000
C      -42.81070000     -33.19290000     -68.98240000
C      -41.78850000     -32.85140000     -69.90600000
C      -41.33830000     -33.75770000     -70.81970000
H      -41.64230000     -35.64600000     -71.79030000
H      -44.15140000     -34.76810000     -68.24820000
H      -41.36950000     -31.86220000     -69.84750000
H      -40.63410000     -33.45360000     -71.59270000
C      -43.20120000     -32.19490000     -67.97770000
H      -42.76980000     -31.14290000     -68.12720000
H      -42.74980000     -32.53930000     -66.98930000
C      -43.42160000     -36.86610000     -70.08200000
H      -42.92490000     -37.46070000     -70.80950000
H      -43.17010000     -37.48910000     -69.19550000
S      -45.03290000     -31.87700000     -67.77950000
S      -45.24110000     -37.02630000     -70.51690000
C      -45.65980000     -31.19130000     -69.42310000
H      -46.53940000     -30.60080000     -69.15800000
H      -44.98670000     -30.66170000     -70.07830000
C      -45.44420000     -35.77450000     -71.90040000
H      -45.09250000     -36.36250000     -72.77080000
H      -44.70090000     -34.98860000     -71.77660000
C      -46.87550000     -35.24330000     -71.98450000
H      -47.66620000     -35.96650000     -72.13980000
H      -47.14810000     -34.85320000     -70.97030000
C      -46.21510000     -32.33260000     -70.30450000
H      -47.06130000     -32.73450000     -69.76800000
H      -45.54120000     -33.13660000     -70.41020000
C      -46.66800000     -31.80480000     -71.62850000
C      -46.76480000     -30.47020000     -72.01730000
C      -46.84940000     -32.70900000     -72.80650000
H      -46.66520000     -29.67450000     -71.24370000
C      -47.10820000     -31.97500000     -73.90400000
C      -47.03880000     -34.18110000     -72.98670000
C      -47.38270000     -34.41400000     -74.32100000
S      -47.17690000     -30.27130000     -73.69120000
S      -47.46520000     -32.97720000     -75.28840000
H      -47.24620000     -35.32520000     -74.87230000
