40
Properties=species:S:1:pos:R:3 #=T CELL(abcABC):=T 1.889726e+02=T 90.00000=T Traj:=T positionsangstrom=T Step:=T 0=T Bead:=T pbc="F F F"
C      -48.43130000     -31.62880000     -69.63800000
C      -47.59780000     -32.50630000     -70.32070000
C      -47.04660000     -32.14370000     -71.54980000
C      -47.25440000     -30.92500000     -72.16230000
C      -47.98080000     -29.95060000     -71.45240000
C      -48.63670000     -30.36330000     -70.27410000
H      -48.89710000     -31.96320000     -68.68990000
H      -46.33400000     -32.82320000     -72.01610000
H      -48.28930000     -29.03440000     -71.84690000
H      -49.01230000     -29.56460000     -69.67610000
C      -46.46320000     -30.28010000     -73.38720000
H      -45.99340000     -29.31290000     -73.04150000
H      -47.14360000     -30.07770000     -74.16430000
C      -47.23600000     -33.89320000     -69.68300000
H      -48.17860000     -34.33390000     -69.38800000
H      -46.63560000     -34.45360000     -70.38450000
S      -45.23210000     -31.45430000     -74.06180000
S      -46.34910000     -33.72220000     -67.95840000
C      -43.68460000     -31.11160000     -73.13070000
H      -42.87540000     -31.23620000     -73.87820000
H      -43.77750000     -30.04020000     -72.72440000
C      -44.72010000     -32.91530000     -68.41670000
H      -44.49180000     -32.34050000     -67.48910000
H      -44.88130000     -32.17730000     -69.24600000
C      -43.58180000     -33.87860000     -68.79450000
H      -42.68450000     -33.28010000     -69.00190000
H      -43.35250000     -34.52110000     -67.91210000
C      -43.45340000     -32.09920000     -71.95640000
H      -44.25290000     -31.84900000     -71.19480000
H      -42.52710000     -31.76640000     -71.39440000
C      -43.50020000     -33.54410000     -72.28260000
C      -43.35120000     -33.98850000     -73.56840000
C      -43.76800000     -34.64030000     -71.36960000
H      -43.16330000     -33.18430000     -74.37980000
C      -44.10190000     -35.83000000     -72.07630000
C      -43.83970000     -34.85080000     -69.89340000
C      -44.25020000     -36.10720000     -69.64890000
S      -43.80420000     -35.72500000     -73.79120000
S      -44.53490000     -37.15910000     -71.06160000
H      -44.51470000     -36.37430000     -68.60250000
