40
Properties=species:S:1:pos:R:3 #=T CELL(abcABC):=T 1.889726e+02=T 90.00000=T Traj:=T positionsangstrom=T Step:=T 0=T Bead:=T pbc="F F F"
C      -41.92320000     -34.96620000     -70.95570000
C      -42.85040000     -35.36950000     -69.99140000
C      -43.29950000     -34.42650000     -69.06210000
C      -42.93230000     -33.03810000     -69.12010000
C      -42.05380000     -32.61620000     -70.07680000
C      -41.54680000     -33.61200000     -70.96350000
H      -41.60600000     -35.53580000     -71.81900000
H      -43.92070000     -34.74720000     -68.33300000
H      -41.64760000     -31.58730000     -70.25150000
H      -40.84230000     -33.27620000     -71.74190000
C      -43.36860000     -32.12590000     -68.03030000
H      -42.86810000     -31.12410000     -68.20240000
H      -43.06190000     -32.45680000     -67.00600000
C      -43.31190000     -36.84370000     -70.01430000
H      -42.60850000     -37.36570000     -70.73510000
H      -43.39920000     -37.17700000     -69.04180000
S      -45.19660000     -32.01210000     -67.74060000
S      -45.08480000     -36.98000000     -70.59950000
C      -45.68910000     -31.25140000     -69.42860000
H      -46.59540000     -30.75840000     -69.29340000
H      -44.88640000     -30.60710000     -69.62730000
C      -45.19210000     -35.57030000     -71.75310000
H      -44.83270000     -35.80510000     -72.76000000
H      -44.66300000     -34.72320000     -71.33030000
C      -46.66450000     -35.22350000     -71.91790000
H      -47.28260000     -36.10300000     -72.11570000
H      -47.01770000     -34.85640000     -70.92810000
C      -45.97910000     -32.37870000     -70.42210000
H      -46.74690000     -32.89240000     -69.86000000
H      -45.11200000     -33.03890000     -70.55260000
C      -46.46090000     -31.89560000     -71.69850000
C      -46.59150000     -30.54600000     -71.99940000
C      -46.90030000     -32.75140000     -72.74970000
H      -46.30700000     -29.67990000     -71.40510000
C      -47.26170000     -32.03080000     -73.95220000
C      -46.94810000     -34.18500000     -72.98050000
C      -47.29220000     -34.53930000     -74.28600000
S      -47.28400000     -30.26590000     -73.56970000
S      -47.58870000     -33.13180000     -75.21150000
H      -47.62490000     -35.51370000     -74.54310000
