40
Properties=species:S:1:pos:R:3 #=T CELL(abcABC):=T 1.889726e+02=T 90.00000=T Traj:=T positionsangstrom=T Step:=T 0=T Bead:=T pbc="F F F"
C      -45.78850000     -33.56780000     -75.22050000
C      -46.21800000     -34.46380000     -74.22220000
C      -45.26990000     -35.27950000     -73.58980000
C      -43.87640000     -35.22740000     -73.97260000
C      -43.41240000     -34.22190000     -74.86590000
C      -44.40440000     -33.44300000     -75.49190000
H      -46.41280000     -32.85300000     -75.73650000
H      -45.57530000     -36.07090000     -72.87800000
H      -42.33070000     -34.13580000     -74.94480000
H      -44.14820000     -32.72090000     -76.21820000
C      -42.94130000     -36.11960000     -73.10650000
H      -42.19260000     -36.66010000     -73.71070000
H      -43.46480000     -36.76030000     -72.42340000
C      -47.71140000     -34.59000000     -74.01510000
H      -48.19940000     -34.93210000     -74.92670000
H      -47.89810000     -35.41670000     -73.23960000
S      -41.80070000     -34.96580000     -72.18550000
S      -48.44490000     -32.92350000     -73.56180000
C      -42.77520000     -33.41920000     -71.82460000
H      -42.08060000     -32.95770000     -71.12360000
H      -42.92110000     -32.81560000     -72.70540000
C      -47.51980000     -32.37410000     -72.05200000
H      -48.12630000     -31.56960000     -71.72070000
H      -46.56320000     -31.91280000     -72.26240000
C      -47.40920000     -33.44100000     -70.99390000
H      -48.41040000     -33.97050000     -70.91990000
H      -46.71750000     -34.26280000     -71.26350000
C      -44.20230000     -33.65410000     -71.09630000
H      -44.35240000     -34.71490000     -70.88330000
H      -44.95520000     -33.31310000     -71.70650000
C      -44.33580000     -32.88490000     -69.77930000
C      -43.34240000     -32.59340000     -68.89710000
C      -45.66870000     -32.66490000     -69.19100000
H      -42.31710000     -32.58330000     -69.22880000
C      -45.57500000     -32.15580000     -67.93670000
C      -47.00890000     -32.92510000     -69.61450000
C      -47.91380000     -32.45130000     -68.65230000
S      -43.89620000     -31.85650000     -67.37450000
S      -47.14130000     -31.76810000     -67.23400000
H      -48.98050000     -32.36200000     -68.72050000
