40
Properties=species:S:1:pos:R:3 #=T CELL(abcABC):=T 1.889726e+02=T 90.00000=T Traj:=T positionsangstrom=T Step:=T 0=T Bead:=T pbc="F F F"
C      -45.77070000     -33.83480000     -75.52830000
C      -46.22910000     -34.58270000     -74.44070000
C      -45.35100000     -35.40060000     -73.68490000
C      -44.00810000     -35.31810000     -73.93290000
C      -43.44860000     -34.47790000     -74.96530000
C      -44.36180000     -33.73820000     -75.70060000
H      -46.46470000     -33.12130000     -75.88570000
H      -45.76290000     -36.05350000     -72.88590000
H      -42.34140000     -34.53210000     -75.18170000
H      -43.89960000     -33.16490000     -76.54500000
C      -43.11700000     -36.12240000     -73.06000000
H      -42.21350000     -36.34370000     -73.66170000
H      -43.59670000     -36.95960000     -72.62340000
C      -47.65560000     -34.66410000     -73.94760000
H      -48.18220000     -35.18480000     -74.72550000
H      -47.70990000     -35.25790000     -72.99480000
S      -42.28300000     -35.20480000     -71.58210000
S      -48.51890000     -33.03950000     -73.58460000
C      -42.61710000     -33.38240000     -71.82960000
H      -41.84560000     -32.89520000     -71.14870000
H      -42.38540000     -33.07170000     -72.82950000
C      -47.66300000     -32.28900000     -72.09740000
H      -48.32690000     -31.43990000     -71.78080000
H      -46.73630000     -31.77580000     -72.43760000
C      -47.41990000     -33.22580000     -70.94010000
H      -48.39850000     -33.68530000     -70.70760000
H      -46.84350000     -34.05630000     -71.25140000
C      -43.99790000     -32.92160000     -71.36830000
H      -44.83270000     -33.64020000     -71.71400000
H      -44.22760000     -31.88280000     -71.84340000
C      -44.25090000     -32.78450000     -69.87350000
C      -43.22250000     -32.65200000     -68.97910000
C      -45.55780000     -32.51470000     -69.28770000
H      -42.10400000     -32.75760000     -69.21010000
C      -45.42000000     -32.02530000     -67.94760000
C      -46.96360000     -32.60110000     -69.64440000
C      -47.83210000     -32.06160000     -68.69870000
S      -43.71820000     -32.07220000     -67.37740000
S      -46.97110000     -31.60060000     -67.23540000
H      -48.95350000     -31.84560000     -68.77990000
