40
Properties=species:S:1:pos:R:3 #=T CELL(abcABC):=T 1.889726e+02=T 90.00000=T Traj:=T positionsangstrom=T Step:=T 0=T Bead:=T pbc="F F F"
C      -41.75770000     -33.69820000     -71.60450000
C      -42.18400000     -34.65620000     -70.66350000
C      -42.55190000     -34.23750000     -69.38340000
C      -42.60920000     -32.86640000     -69.13540000
C      -42.18820000     -31.91410000     -70.04360000
C      -41.75320000     -32.32950000     -71.31580000
H      -41.55390000     -34.05990000     -72.54650000
H      -43.03710000     -34.84040000     -68.61760000
H      -42.31030000     -30.83030000     -69.82440000
H      -41.40400000     -31.60380000     -72.03460000
C      -43.10420000     -32.35560000     -67.82600000
H      -42.94610000     -31.23470000     -67.69860000
H      -42.77770000     -32.85660000     -66.84390000
C      -42.42980000     -36.05610000     -71.07950000
H      -42.08570000     -36.15980000     -72.12440000
H      -41.85770000     -36.84830000     -70.64650000
S      -44.99450000     -32.61040000     -67.59780000
S      -44.17400000     -36.68750000     -71.00620000
C      -45.87740000     -31.89920000     -69.01510000
H      -46.87600000     -31.52540000     -68.70000000
H      -45.30870000     -31.00220000     -69.36190000
C      -45.01990000     -35.57280000     -72.27140000
H      -44.77530000     -35.91390000     -73.32150000
H      -44.49130000     -34.60040000     -72.15670000
C      -46.52400000     -35.55240000     -72.03080000
H      -46.89270000     -36.58880000     -72.20670000
H      -46.72110000     -35.38060000     -70.95480000
C      -46.15550000     -32.93260000     -70.10450000
H      -46.86230000     -33.69380000     -69.71280000
H      -45.23320000     -33.48880000     -70.35960000
C      -46.88960000     -32.23700000     -71.32200000
C      -47.03470000     -30.91880000     -71.50750000
C      -47.27930000     -33.05260000     -72.50670000
H      -46.85590000     -30.05510000     -70.88690000
C      -47.82490000     -32.27560000     -73.49840000
C      -47.24550000     -34.43470000     -72.86760000
C      -47.60540000     -34.66340000     -74.18320000
S      -47.80400000     -30.59230000     -73.10680000
S      -48.30190000     -33.17450000     -74.95300000
H      -47.96370000     -35.55870000     -74.70190000
