40
Properties=species:S:1:pos:R:3 #=T CELL(abcABC):=T 1.889726e+02=T 90.00000=T Traj:=T positionsangstrom=T Step:=T 0=T Bead:=T pbc="F F F"
C      -45.94380000     -33.98350000     -75.40040000
C      -46.18290000     -34.73740000     -74.24600000
C      -45.16070000     -35.30710000     -73.55660000
C      -43.80570000     -35.23570000     -74.02880000
C      -43.57850000     -34.60680000     -75.25920000
C      -44.61280000     -33.96790000     -75.90100000
H      -46.70190000     -33.38600000     -75.86540000
H      -45.33270000     -35.77210000     -72.58850000
H      -42.59170000     -34.62520000     -75.75610000
H      -44.37900000     -33.51640000     -76.79930000
C      -42.80320000     -35.88020000     -73.15660000
H      -41.87040000     -35.83800000     -73.61960000
H      -43.08550000     -36.92800000     -72.98870000
C      -47.54410000     -34.80600000     -73.65280000
H      -48.17800000     -35.45170000     -74.27460000
H      -47.47490000     -35.21860000     -72.68420000
S      -42.77220000     -35.31700000     -71.40350000
S      -48.41120000     -33.09030000     -73.61230000
C      -42.52320000     -33.44760000     -71.56380000
H      -41.72580000     -33.15310000     -70.88040000
H      -42.19490000     -33.34440000     -72.63880000
C      -47.44010000     -32.28250000     -72.27940000
H      -47.98400000     -31.38940000     -72.01430000
H      -46.49910000     -31.88810000     -72.69200000
C      -47.27910000     -33.16930000     -71.09220000
H      -48.17370000     -33.67930000     -70.91290000
H      -46.45220000     -33.87730000     -71.34670000
C      -43.83980000     -32.71430000     -71.37950000
H      -44.69380000     -33.15790000     -71.90790000
H      -43.69160000     -31.72070000     -71.89460000
C      -44.19400000     -32.45340000     -69.91390000
C      -43.21950000     -32.29370000     -68.96730000
C      -45.53200000     -32.27570000     -69.31990000
H      -42.14170000     -32.40950000     -69.08970000
C      -45.43080000     -32.00640000     -67.99830000
C      -46.91590000     -32.50960000     -69.77010000
C      -47.78830000     -32.36240000     -68.73650000
S      -43.81880000     -31.82040000     -67.40520000
S      -46.98890000     -31.88570000     -67.23070000
H      -48.76960000     -32.70840000     -68.79630000
