40
Properties=species:S:1:pos:R:3 #=T CELL(abcABC):=T 1.889726e+02=T 90.00000=T Traj:=T positionsangstrom=T Step:=T 0=T Bead:=T pbc="F F F"
C      -45.78080000     -34.03800000     -75.63240000
C      -46.35370000     -34.68500000     -74.52880000
C      -45.40870000     -35.25250000     -73.61550000
C      -44.05510000     -35.24780000     -73.78160000
C      -43.51670000     -34.70320000     -74.93090000
C      -44.44590000     -34.08860000     -75.84600000
H      -46.36040000     -33.63370000     -76.42550000
H      -45.84260000     -35.63630000     -72.68960000
H      -42.46260000     -34.51830000     -74.95390000
H      -44.01300000     -33.50710000     -76.73850000
C      -43.19170000     -35.96490000     -72.81210000
H      -42.25860000     -36.32150000     -73.15290000
H      -43.67600000     -36.89160000     -72.64290000
C      -47.80100000     -34.68960000     -74.17530000
H      -48.42480000     -35.02160000     -74.99480000
H      -47.93070000     -35.44840000     -73.41940000
S      -43.05310000     -35.21640000     -71.07660000
S      -48.33620000     -32.98850000     -73.61540000
C      -42.56760000     -33.52160000     -71.59020000
H      -41.66770000     -33.22380000     -70.98290000
H      -42.24800000     -33.72940000     -72.59230000
C      -47.17040000     -32.48070000     -72.24780000
H      -47.68720000     -31.66530000     -71.74440000
H      -46.25850000     -32.20160000     -72.63900000
C      -47.02640000     -33.55230000     -71.08250000
H      -48.03840000     -34.05460000     -71.00340000
H      -46.42460000     -34.37250000     -71.23530000
C      -43.73860000     -32.56100000     -71.40420000
H      -44.55840000     -32.95870000     -72.01050000
H      -43.46850000     -31.61700000     -71.90550000
C      -44.06540000     -32.42100000     -69.91900000
C      -43.13130000     -31.80120000     -69.09820000
C      -45.38620000     -32.45100000     -69.35000000
H      -42.13700000     -31.63670000     -69.28230000
C      -45.36580000     -32.05570000     -67.95290000
C      -46.70850000     -32.89310000     -69.72820000
C      -47.67970000     -32.57980000     -68.77960000
S      -43.79340000     -31.50040000     -67.52570000
S      -46.95350000     -32.01500000     -67.32250000
H      -48.64260000     -32.83860000     -68.86770000
