40
Properties=species:S:1:pos:R:3 #=T CELL(abcABC):=T 1.889726e+02=T 90.00000=T Traj:=T positionsangstrom=T Step:=T 0=T Bead:=T pbc="F F F"
C      -41.68230000     -33.93930000     -71.51610000
C      -42.33680000     -34.75840000     -70.57640000
C      -42.85530000     -34.22910000     -69.36450000
C      -42.72170000     -32.90990000     -69.13570000
C      -42.00530000     -32.06730000     -70.04620000
C      -41.53810000     -32.57660000     -71.23860000
H      -41.22130000     -34.35730000     -72.42700000
H      -43.21080000     -34.92390000     -68.60980000
H      -42.07770000     -30.98930000     -69.79570000
H      -40.90220000     -31.90540000     -71.74390000
C      -43.27060000     -32.27320000     -67.91130000
H      -42.95800000     -31.26490000     -67.96560000
H      -42.82460000     -32.83090000     -67.10430000
C      -42.41900000     -36.25090000     -70.81780000
H      -41.73110000     -36.42800000     -71.69030000
H      -42.00210000     -36.72840000     -69.90350000
S      -45.03540000     -32.36180000     -67.53040000
S      -44.19940000     -36.72730000     -71.08370000
C      -45.84270000     -31.67780000     -69.00230000
H      -46.83470000     -31.39890000     -68.67910000
H      -45.28800000     -30.77410000     -69.26370000
C      -44.92250000     -35.48210000     -72.23160000
H      -44.37070000     -35.52010000     -73.20510000
H      -44.77640000     -34.50600000     -71.86690000
C      -46.44110000     -35.64140000     -72.25800000
H      -46.70630000     -36.49480000     -72.88960000
H      -46.79790000     -35.77020000     -71.28960000
C      -45.90180000     -32.69010000     -70.23520000
H      -46.34610000     -33.55910000     -69.89990000
H      -44.88460000     -33.05140000     -70.47790000
C      -46.66730000     -32.17580000     -71.46650000
C      -47.08860000     -30.91020000     -71.60320000
C      -47.03020000     -33.04730000     -72.57170000
H      -46.94680000     -30.16230000     -70.86080000
C      -47.67610000     -32.26850000     -73.58540000
C      -47.12870000     -34.48820000     -72.92990000
C      -47.76610000     -34.65240000     -74.12020000
S      -47.88630000     -30.62500000     -73.10380000
S      -48.49880000     -33.20350000     -74.86960000
H      -47.90310000     -35.65790000     -74.45350000
