40
Properties=species:S:1:pos:R:3 #=T CELL(abcABC):=T 1.889726e+02=T 90.00000=T Traj:=T positionsangstrom=T Step:=T 0=T Bead:=T pbc="F F F"
C      -42.00130000     -33.73350000     -71.72960000
C      -42.32570000     -34.69230000     -70.78240000
C      -42.75140000     -34.23920000     -69.53590000
C      -42.88680000     -32.87030000     -69.28710000
C      -42.66260000     -31.89920000     -70.26180000
C      -42.10650000     -32.37970000     -71.46950000
H      -41.81430000     -33.96590000     -72.75750000
H      -42.93900000     -34.92340000     -68.67700000
H      -42.80970000     -30.86900000     -70.15920000
H      -41.83140000     -31.61390000     -72.12130000
C      -43.24850000     -32.40130000     -67.88910000
H      -42.97180000     -31.36700000     -67.64060000
H      -42.72200000     -32.91100000     -67.14700000
C      -42.30630000     -36.10970000     -71.13060000
H      -41.61340000     -36.22620000     -71.90630000
H      -41.98160000     -36.79240000     -70.27950000
S      -44.95550000     -32.92080000     -67.39870000
S      -43.98020000     -36.74490000     -71.51350000
C      -45.87230000     -31.94760000     -68.65230000
H      -46.89140000     -31.91700000     -68.29320000
H      -45.66070000     -30.83480000     -68.80870000
C      -44.82610000     -35.49250000     -72.52810000
H      -44.81070000     -35.74260000     -73.55860000
H      -44.21040000     -34.55450000     -72.51020000
C      -46.24720000     -35.41330000     -72.10680000
H      -46.63430000     -36.42620000     -72.25750000
H      -46.29610000     -35.17410000     -70.98900000
C      -45.90130000     -32.74210000     -70.03960000
H      -46.10510000     -33.75970000     -69.62480000
H      -44.85570000     -32.71660000     -70.44950000
C      -46.76680000     -32.19300000     -71.17600000
C      -47.17430000     -30.90920000     -71.29950000
C      -47.16590000     -32.99800000     -72.36010000
H      -47.07630000     -30.14870000     -70.47920000
C      -47.72250000     -32.17020000     -73.40010000
C      -46.96280000     -34.36770000     -72.93560000
C      -47.43570000     -34.53150000     -74.19640000
S      -48.08850000     -30.58430000     -72.75560000
S      -48.16940000     -33.05300000     -74.84600000
H      -47.37620000     -35.42200000     -74.78640000
