40
Properties=species:S:1:pos:R:3 #=T CELL(abcABC):=T 1.889726e+02=T 90.00000=T Traj:=T positionsangstrom=T Step:=T 0=T Bead:=T pbc="F F F"
C      -45.75130000     -33.71320000     -75.45370000
C      -46.17050000     -34.48190000     -74.36910000
C      -45.23810000     -35.34770000     -73.76010000
C      -43.85870000     -35.31200000     -74.06680000
C      -43.47370000     -34.36720000     -75.04050000
C      -44.42790000     -33.66670000     -75.76190000
H      -46.51490000     -33.20530000     -76.02870000
H      -45.53650000     -35.93750000     -72.86660000
H      -42.45890000     -34.22630000     -75.35890000
H      -44.05180000     -32.97740000     -76.48910000
C      -42.80690000     -36.14140000     -73.43390000
H      -41.86170000     -35.73280000     -73.78440000
H      -42.90380000     -37.17490000     -73.81250000
C      -47.71090000     -34.69790000     -74.07630000
H      -48.25790000     -35.08840000     -74.92360000
H      -47.59350000     -35.44370000     -73.29430000
S      -42.83630000     -36.27370000     -71.60470000
S      -48.58710000     -33.22560000     -73.43880000
C      -42.85910000     -34.57080000     -70.82010000
H      -42.52760000     -34.78200000     -69.82080000
H      -42.15340000     -33.83880000     -71.20030000
C      -47.45110000     -32.50510000     -72.01210000
H      -47.68190000     -31.46470000     -71.81370000
H      -46.49110000     -32.47200000     -72.44610000
C      -47.41710000     -33.31380000     -70.65450000
H      -48.39910000     -33.74460000     -70.25710000
H      -46.80800000     -34.17190000     -70.90960000
C      -44.19640000     -33.83040000     -70.85300000
H      -45.03030000     -34.57520000     -70.71090000
H      -44.47590000     -33.37430000     -71.82010000
C      -44.19830000     -32.78290000     -69.77040000
C      -43.12220000     -32.23400000     -69.11880000
C      -45.47100000     -32.35030000     -69.21610000
H      -42.01340000     -32.17430000     -69.25410000
C      -45.27690000     -31.47620000     -68.17630000
C      -46.85410000     -32.42980000     -69.58280000
C      -47.68530000     -31.74770000     -68.69810000
S      -43.63390000     -31.24650000     -67.69740000
S      -46.81880000     -30.89330000     -67.51950000
H      -48.75070000     -31.69490000     -68.77580000
