40
Properties=species:S:1:pos:R:3 #=T CELL(abcABC):=T 1.889726e+02=T 90.00000=T Traj:=T positionsangstrom=T Step:=T 0=T Bead:=T pbc="F F F"
C      -45.87030000     -33.99350000     -75.46340000
C      -46.25770000     -34.77650000     -74.39200000
C      -45.34840000     -35.50460000     -73.64420000
C      -43.96250000     -35.38130000     -73.96750000
C      -43.59170000     -34.62200000     -75.03570000
C      -44.52140000     -33.85500000     -75.74740000
H      -46.54490000     -33.30650000     -75.95260000
H      -45.62290000     -36.02320000     -72.72740000
H      -42.53720000     -34.36140000     -75.20650000
H      -44.30320000     -33.11310000     -76.46890000
C      -42.94090000     -36.20050000     -73.15390000
H      -41.92860000     -35.99380000     -73.61720000
H      -43.07110000     -37.31780000     -73.35950000
C      -47.69220000     -34.78080000     -73.96490000
H      -48.24990000     -35.22570000     -74.74890000
H      -47.77490000     -35.36700000     -73.02740000
S      -42.87540000     -35.96280000     -71.31570000
S      -48.42500000     -33.06840000     -73.57610000
C      -42.48640000     -34.14700000     -71.08040000
H      -42.16180000     -34.17530000     -69.99620000
H      -41.64200000     -33.83160000     -71.69690000
C      -47.38600000     -32.39830000     -72.21120000
H      -47.91890000     -31.49060000     -71.86600000
H      -46.40980000     -32.06210000     -72.62650000
C      -47.35170000     -33.26260000     -71.01730000
H      -48.32400000     -33.63190000     -70.84290000
H      -46.66760000     -34.20160000     -71.09900000
C      -43.71190000     -33.22000000     -71.19230000
H      -44.64620000     -33.74970000     -71.49260000
H      -43.60730000     -32.39900000     -71.99970000
C      -44.06100000     -32.46360000     -69.85610000
C      -43.16140000     -31.87480000     -69.01870000
C      -45.38190000     -32.21280000     -69.39870000
H      -42.14290000     -31.99330000     -69.14310000
C      -45.35480000     -31.70270000     -68.07690000
C      -46.79690000     -32.46280000     -69.80610000
C      -47.66120000     -32.07630000     -68.85010000
S      -43.81660000     -31.20870000     -67.54630000
S      -46.95850000     -31.46060000     -67.40690000
H      -48.75170000     -32.28020000     -68.84010000
