40
Properties=species:S:1:pos:R:3 #=T CELL(abcABC):=T 1.889726e+02=T 90.00000=T Traj:=T positionsangstrom=T Step:=T 0=T Bead:=T pbc="F F F"
C      -45.87070000     -33.78340000     -75.29480000
C      -46.24140000     -34.59160000     -74.22430000
C      -45.23410000     -35.36750000     -73.57630000
C      -43.94300000     -35.30090000     -73.98570000
C      -43.63170000     -34.46690000     -75.08910000
C      -44.58510000     -33.73870000     -75.72490000
H      -46.67660000     -33.18580000     -75.72970000
H      -45.58060000     -36.12610000     -72.93600000
H      -42.60580000     -34.28650000     -75.39950000
H      -44.30650000     -33.20850000     -76.62880000
C      -42.82740000     -36.11060000     -73.36630000
H      -41.84080000     -35.70260000     -73.69910000
H      -42.72750000     -37.15840000     -73.76030000
C      -47.64450000     -34.77290000     -73.82530000
H      -48.45930000     -34.95560000     -74.59380000
H      -47.85590000     -35.55630000     -73.10490000
S      -42.83520000     -36.16780000     -71.49190000
S      -48.34190000     -33.11620000     -73.43800000
C      -42.57720000     -34.39980000     -71.19740000
H      -42.08580000     -34.35740000     -70.22490000
H      -41.80060000     -34.08140000     -71.94490000
C      -47.36580000     -32.45090000     -72.08100000
H      -47.86100000     -31.46060000     -71.92790000
H      -46.27750000     -32.40680000     -72.36280000
C      -47.47520000     -33.27870000     -70.76610000
H      -48.53580000     -33.30550000     -70.60850000
H      -47.00350000     -34.21650000     -70.71170000
C      -43.95910000     -33.64890000     -71.06510000
H      -44.82940000     -34.35690000     -71.02040000
H      -44.09590000     -32.95240000     -72.00170000
C      -44.16530000     -32.82450000     -69.80300000
C      -43.17100000     -32.31800000     -68.99370000
C      -45.47720000     -32.31960000     -69.36230000
H      -42.10860000     -32.28900000     -69.05070000
C      -45.35880000     -31.43470000     -68.27220000
C      -46.87860000     -32.46550000     -69.63790000
C      -47.74820000     -31.92430000     -68.71950000
S      -43.76970000     -31.24530000     -67.72220000
S      -46.86180000     -31.03720000     -67.53410000
H      -48.80400000     -32.05680000     -68.78440000
