40
Properties=species:S:1:pos:R:3 #=T CELL(abcABC):=T 1.889726e+02=T 90.00000=T Traj:=T positionsangstrom=T Step:=T 0=T Bead:=T pbc="F F F"
C      -46.72540000     -30.05320000     -69.33450000
C      -46.60310000     -30.95380000     -70.41970000
C      -45.28380000     -31.03950000     -70.95750000
C      -44.20800000     -30.28860000     -70.47830000
C      -44.40360000     -29.37380000     -69.43940000
C      -45.64280000     -29.31490000     -68.81660000
H      -47.66110000     -30.05810000     -68.76500000
H      -45.05760000     -31.73740000     -71.72990000
H      -43.57780000     -28.69870000     -69.11540000
H      -45.96890000     -28.50990000     -68.11010000
C      -42.76930000     -30.43800000     -71.05450000
H      -42.08620000     -30.38760000     -70.23300000
H      -42.61280000     -29.53760000     -71.56490000
C      -47.67290000     -31.89890000     -70.94490000
H      -48.56900000     -31.32120000     -71.32060000
H      -47.32690000     -32.40320000     -71.82080000
S      -42.33990000     -31.84000000     -72.18960000
S      -48.19770000     -33.20180000     -69.74390000
C      -41.98970000     -33.32690000     -71.03100000
H      -41.37610000     -33.96610000     -71.67640000
H      -41.32290000     -32.98350000     -70.23500000
C      -46.50090000     -33.68930000     -69.21850000
H      -46.31930000     -33.35880000     -68.23300000
H      -45.78410000     -33.16120000     -69.84770000
C      -46.09730000     -35.19490000     -69.45840000
H      -45.06780000     -35.25660000     -69.08190000
H      -46.73630000     -35.84730000     -68.85460000
C      -43.32290000     -34.05010000     -70.68490000
H      -43.99430000     -33.35180000     -70.23820000
H      -43.11770000     -34.82130000     -70.05500000
C      -44.01420000     -34.69150000     -71.94680000
C      -43.51050000     -34.61510000     -73.19490000
C      -45.29130000     -35.36460000     -71.87040000
H      -42.64960000     -34.15470000     -73.55530000
C      -45.66470000     -35.91240000     -73.11490000
C      -46.24290000     -35.64480000     -70.83930000
C      -47.24700000     -36.45260000     -71.27420000
S      -44.64260000     -35.32850000     -74.32090000
S      -47.18070000     -36.82160000     -73.00020000
H      -48.14020000     -36.79890000     -70.67500000
