40
Properties=species:S:1:pos:R:3 #=T CELL(abcABC):=T 1.889726e+02=T 90.00000=T Traj:=T positionsangstrom=T Step:=T 0=T Bead:=T pbc="F F F"
C      -46.57230000     -30.31810000     -69.04620000
C      -46.60010000     -30.85780000     -70.36260000
C      -45.46410000     -30.71430000     -71.21470000
C      -44.22940000     -30.16170000     -70.71940000
C      -44.21930000     -29.68200000     -69.41920000
C      -45.34400000     -29.81990000     -68.62420000
H      -47.43180000     -30.27490000     -68.42870000
H      -45.56030000     -31.23590000     -72.13370000
H      -43.23990000     -29.35100000     -69.01350000
H      -45.21150000     -29.50280000     -67.61140000
C      -43.06200000     -29.96930000     -71.64650000
H      -42.18360000     -29.49100000     -71.21340000
H      -43.41490000     -29.52270000     -72.54760000
C      -47.78680000     -31.70550000     -70.82980000
H      -48.71400000     -31.14360000     -70.80600000
H      -47.55830000     -32.08390000     -71.82300000
S      -42.51960000     -31.54060000     -72.55740000
S      -48.12770000     -33.08570000     -69.60510000
C      -42.04100000     -32.97340000     -71.35160000
H      -41.29110000     -33.53650000     -71.91970000
H      -41.59770000     -32.48520000     -70.50000000
C      -46.42310000     -33.61100000     -69.15770000
H      -46.26590000     -33.24850000     -68.07200000
H      -45.69970000     -33.14370000     -69.84360000
C      -46.09280000     -35.08980000     -69.28420000
H      -45.09870000     -35.14960000     -68.73720000
H      -46.79350000     -35.77100000     -68.65400000
C      -43.32040000     -33.71030000     -70.99250000
H      -44.08090000     -33.04140000     -70.60550000
H      -43.08220000     -34.29140000     -70.08330000
C      -44.10120000     -34.58650000     -72.04750000
C      -43.53420000     -34.74330000     -73.28690000
C      -45.32760000     -35.40220000     -71.82880000
H      -42.85210000     -33.96710000     -73.68850000
C      -45.70100000     -36.10770000     -72.96170000
C      -46.15640000     -35.63540000     -70.69020000
C      -47.18150000     -36.52910000     -70.99000000
S      -44.62940000     -35.81810000     -74.28840000
S      -47.07460000     -37.07910000     -72.63370000
H      -47.99470000     -36.73130000     -70.36860000
