40
Properties=species:S:1:pos:R:3 #=T CELL(abcABC):=T 1.889726e+02=T 90.00000=T Traj:=T positionsangstrom=T Step:=T 0=T Bead:=T pbc="F F F"
C      -46.45420000     -30.29200000     -69.05970000
C      -46.42900000     -30.95430000     -70.28390000
C      -45.26080000     -30.85440000     -71.12050000
C      -44.15500000     -30.12940000     -70.67420000
C      -44.25890000     -29.38790000     -69.51750000
C      -45.38880000     -29.50280000     -68.67260000
H      -47.36540000     -30.30900000     -68.45080000
H      -45.31170000     -31.20060000     -72.17640000
H      -43.53050000     -28.74170000     -69.13860000
H      -45.51080000     -28.78800000     -67.88160000
C      -42.83500000     -30.15690000     -71.40480000
H      -42.05750000     -30.23110000     -70.57930000
H      -42.65660000     -29.09800000     -71.76380000
C      -47.67640000     -31.62170000     -70.74790000
H      -48.56330000     -30.99520000     -70.63730000
H      -47.64440000     -31.95530000     -71.80750000
S      -42.60400000     -31.57440000     -72.50270000
S      -48.09800000     -33.26750000     -69.86560000
C      -42.27730000     -32.94850000     -71.21930000
H      -41.46100000     -33.62450000     -71.51770000
H      -41.86780000     -32.47420000     -70.30500000
C      -46.49200000     -33.64490000     -69.03130000
H      -46.61640000     -33.65700000     -67.97240000
H      -45.74670000     -32.89150000     -69.20930000
C      -46.04440000     -35.07840000     -69.31370000
H      -45.06850000     -35.25480000     -68.96490000
H      -46.68830000     -35.72090000     -68.66930000
C      -43.39980000     -33.82610000     -70.89800000
H      -44.14720000     -33.17300000     -70.30410000
H      -43.04100000     -34.67010000     -70.25870000
C      -44.12570000     -34.60950000     -71.99700000
C      -43.70870000     -34.68580000     -73.31490000
C      -45.29680000     -35.41000000     -71.75340000
H      -42.82200000     -34.31640000     -73.76330000
C      -45.64940000     -36.09490000     -72.89590000
C      -46.17280000     -35.67320000     -70.68690000
C      -47.16360000     -36.57460000     -71.07670000
S      -44.65410000     -35.75950000     -74.30320000
S      -47.13640000     -36.98650000     -72.77770000
H      -47.87330000     -36.87260000     -70.41140000
