40
Properties=species:S:1:pos:R:3 #=T CELL(abcABC):=T 1.889726e+02=T 90.00000=T Traj:=T positionsangstrom=T Step:=T 0=T Bead:=T pbc="F F F"
C      -46.58800000     -30.08760000     -69.25860000
C      -46.47210000     -30.91780000     -70.40010000
C      -45.22910000     -31.00390000     -71.02120000
C      -44.16420000     -30.23970000     -70.51950000
C      -44.37540000     -29.29780000     -69.53390000
C      -45.60340000     -29.19180000     -68.93020000
H      -47.56210000     -30.05020000     -68.76650000
H      -45.15170000     -31.58420000     -71.92060000
H      -43.46780000     -28.77370000     -69.20850000
H      -45.80510000     -28.61470000     -68.03420000
C      -42.79280000     -30.32190000     -71.10940000
H      -41.97990000     -30.46200000     -70.31220000
H      -42.57800000     -29.41300000     -71.73600000
C      -47.71250000     -31.60680000     -70.81190000
H      -48.57820000     -31.07540000     -70.43110000
H      -47.78140000     -31.78910000     -71.90550000
S      -42.53870000     -31.70100000     -72.27360000
S      -48.02350000     -33.24580000     -69.93710000
C      -42.06910000     -33.08170000     -71.17690000
H      -41.38160000     -33.72020000     -71.77730000
H      -41.60000000     -32.77290000     -70.24460000
C      -46.47480000     -33.83610000     -69.17720000
H      -46.50630000     -33.63670000     -68.09470000
H      -45.73490000     -33.14850000     -69.62050000
C      -46.25160000     -35.35660000     -69.31850000
H      -45.37370000     -35.77860000     -68.75770000
H      -47.00500000     -35.85690000     -68.79920000
C      -43.23170000     -34.02610000     -70.75380000
H      -43.99910000     -33.58920000     -70.03670000
H      -42.77440000     -34.85430000     -70.05300000
C      -43.96560000     -34.72260000     -71.90650000
C      -43.54920000     -34.64250000     -73.20330000
C      -45.24740000     -35.36560000     -71.73580000
H      -42.74890000     -34.22490000     -73.65010000
C      -45.75060000     -35.87680000     -72.94730000
C      -46.20550000     -35.77520000     -70.71040000
C      -47.21870000     -36.54880000     -71.21470000
S      -44.63380000     -35.61080000     -74.26730000
S      -47.25110000     -36.78630000     -72.94400000
H      -48.03950000     -36.98320000     -70.60050000
