40
Properties=species:S:1:pos:R:3 #=T CELL(abcABC):=T 1.889726e+02=T 90.00000=T Traj:=T positionsangstrom=T Step:=T 0=T Bead:=T pbc="F F F"
C      -46.70340000     -30.68640000     -69.13950000
C      -46.44550000     -31.43860000     -70.30010000
C      -45.20480000     -31.23250000     -70.87990000
C      -44.19080000     -30.36010000     -70.38880000
C      -44.50180000     -29.69510000     -69.18940000
C      -45.73430000     -29.91790000     -68.53370000
H      -47.61520000     -30.90470000     -68.56760000
H      -45.07910000     -31.66520000     -71.81730000
H      -43.77770000     -29.06400000     -68.65980000
H      -45.88390000     -29.35560000     -67.62930000
C      -42.84370000     -30.29150000     -70.97810000
H      -42.12910000     -30.08290000     -70.14790000
H      -42.75450000     -29.43230000     -71.65270000
C      -47.41910000     -32.36330000     -71.00330000
H      -48.18800000     -31.75360000     -71.55390000
H      -46.90410000     -32.89270000     -71.76370000
S      -42.21220000     -31.70010000     -71.90890000
S      -48.29410000     -33.50900000     -69.92250000
C      -42.26380000     -33.09720000     -70.62750000
H      -41.35750000     -33.77570000     -70.89370000
H      -42.05380000     -32.62320000     -69.61260000
C      -46.98020000     -34.27900000     -68.93480000
H      -47.27980000     -34.44540000     -67.89480000
H      -46.21130000     -33.51510000     -68.86980000
C      -46.35200000     -35.56360000     -69.56160000
H      -45.25760000     -35.54160000     -69.26340000
H      -46.84460000     -36.47310000     -69.18760000
C      -43.42260000     -34.09470000     -70.49540000
H      -44.26820000     -33.59880000     -69.98130000
H      -43.11560000     -34.92610000     -69.77910000
C      -43.98460000     -34.64370000     -71.75170000
C      -43.36080000     -34.51570000     -72.97070000
C      -45.32980000     -35.18050000     -72.00430000
H      -42.32080000     -34.29770000     -73.04200000
C      -45.60080000     -35.40440000     -73.36210000
C      -46.36060000     -35.63400000     -71.08280000
C      -47.45130000     -36.10330000     -71.80730000
S      -44.26070000     -34.90550000     -74.39750000
S      -47.17190000     -36.11340000     -73.53570000
H      -48.32240000     -36.47120000     -71.29990000
