40
Properties=species:S:1:pos:R:3 #=T CELL(abcABC):=T 1.889726e+02=T 90.00000=T Traj:=T positionsangstrom=T Step:=T 0=T Bead:=T pbc="F F F"
C      -45.16960000     -36.21830000     -71.08190000
C      -44.98380000     -35.61100000     -69.80440000
C      -43.78460000     -34.89220000     -69.48740000
C      -42.85910000     -34.66620000     -70.50640000
C      -42.99500000     -35.21320000     -71.80550000
C      -44.18770000     -35.96850000     -72.09520000
H      -46.03380000     -36.67970000     -71.32850000
H      -43.54440000     -34.33170000     -68.55510000
H      -42.22340000     -35.03190000     -72.57280000
H      -44.20180000     -36.37000000     -73.05980000
C      -41.71750000     -33.79550000     -70.11260000
H      -40.81800000     -34.17240000     -70.60510000
H      -41.54880000     -33.77240000     -69.02350000
C      -46.00190000     -35.82620000     -68.73710000
H      -45.98500000     -36.85420000     -68.39540000
H      -45.82430000     -35.16730000     -67.87220000
S      -41.87120000     -32.07660000     -70.76040000
S      -47.78750000     -35.48500000     -69.15220000
C      -43.50770000     -31.56560000     -69.89520000
H      -43.95740000     -32.51190000     -69.71770000
H      -43.25850000     -31.09380000     -68.95660000
C      -47.95930000     -33.65030000     -68.94540000
H      -48.05100000     -33.33870000     -67.89890000
H      -48.99380000     -33.54150000     -69.33470000
C      -46.99020000     -32.76690000     -69.74580000
H      -47.18920000     -31.67970000     -69.57280000
H      -45.99070000     -33.04500000     -69.40000000
C      -44.33670000     -30.60700000     -70.76910000
H      -43.75030000     -29.66750000     -70.94680000
H      -45.25430000     -30.27540000     -70.18010000
C      -44.99560000     -31.21130000     -72.00160000
C      -44.42980000     -30.98810000     -73.26770000
C      -46.13130000     -32.09530000     -72.13270000
H      -43.52040000     -30.44290000     -73.28460000
C      -46.52290000     -32.22330000     -73.48700000
C      -47.06210000     -32.82450000     -71.26730000
C      -48.02640000     -33.55410000     -71.95090000
S      -45.35210000     -31.53680000     -74.59930000
S      -47.87110000     -33.33780000     -73.70210000
H      -48.87340000     -34.13280000     -71.59150000
