40
Properties=species:S:1:pos:R:3 #=T CELL(abcABC):=T 1.889726e+02=T 90.00000=T Traj:=T positionsangstrom=T Step:=T 0=T Bead:=T pbc="F F F"
C      -45.21510000     -35.84880000     -71.87880000
C      -44.40330000     -35.58290000     -70.73630000
C      -43.42950000     -34.61420000     -70.76460000
C      -43.21130000     -34.00870000     -72.00060000
C      -43.87620000     -34.38310000     -73.16880000
C      -44.99360000     -35.27580000     -73.12830000
H      -45.97880000     -36.62010000     -71.81850000
H      -42.76310000     -34.37120000     -69.92350000
H      -43.71960000     -33.85060000     -74.07860000
H      -45.45200000     -35.65660000     -73.99830000
C      -42.04070000     -33.11750000     -72.22840000
H      -41.91290000     -33.13950000     -73.25380000
H      -41.12010000     -33.49820000     -71.71450000
C      -44.69780000     -36.40430000     -69.47130000
H      -44.46840000     -37.54490000     -69.56760000
H      -44.02210000     -36.10000000     -68.69560000
S      -42.14790000     -31.25760000     -71.85420000
S      -46.51090000     -36.30280000     -68.89270000
C      -43.02220000     -31.27760000     -70.19720000
H      -42.87310000     -32.22280000     -69.67540000
H      -42.56390000     -30.47180000     -69.53840000
C      -46.70390000     -34.65470000     -68.18130000
H      -46.30150000     -34.56300000     -67.15540000
H      -47.79870000     -34.55320000     -68.07210000
C      -46.09760000     -33.48530000     -68.99040000
H      -46.23660000     -32.59180000     -68.27500000
H      -44.97760000     -33.55210000     -68.93080000
C      -44.55270000     -30.88890000     -70.24270000
H      -44.56560000     -29.81760000     -70.19090000
H      -44.96040000     -31.27120000     -69.32120000
C      -45.32550000     -31.30110000     -71.43740000
C      -45.26590000     -30.63940000     -72.63840000
C      -46.29420000     -32.35020000     -71.33320000
H      -44.69260000     -29.71070000     -72.82930000
C      -47.03900000     -32.41270000     -72.53990000
C      -46.71670000     -33.30910000     -70.36990000
C      -47.88740000     -33.93210000     -70.79490000
S      -46.49810000     -31.28620000     -73.79590000
S      -48.25950000     -33.58880000     -72.38530000
H      -48.19610000     -34.87340000     -70.30750000
