40
Properties=species:S:1:pos:R:3 #=T CELL(abcABC):=T 1.889726e+02=T 90.00000=T Traj:=T positionsangstrom=T Step:=T 0=T Bead:=T pbc="F F F"
C      -45.42490000     -31.84790000     -74.17610000
C      -46.44150000     -32.78180000     -74.36700000
C      -46.11400000     -34.16090000     -74.47900000
C      -44.78070000     -34.54370000     -74.37990000
C      -43.80330000     -33.58730000     -74.06490000
C      -44.09230000     -32.24220000     -73.92010000
H      -45.77740000     -30.78250000     -74.18940000
H      -46.88820000     -34.87930000     -74.59330000
H      -42.79980000     -33.93470000     -73.76460000
H      -43.29230000     -31.55740000     -73.64270000
C      -44.37040000     -35.92090000     -74.22880000
H      -43.27660000     -35.98630000     -74.41500000
H      -44.87840000     -36.64790000     -74.92440000
C      -47.90440000     -32.46170000     -74.55350000
H      -48.06990000     -31.65880000     -75.20660000
H      -48.41550000     -33.34970000     -74.95760000
S      -44.64500000     -36.72590000     -72.56480000
S      -48.81630000     -32.33890000     -72.91580000
C      -43.86730000     -35.67630000     -71.28640000
H      -42.89090000     -36.06490000     -71.02750000
H      -43.61340000     -34.62970000     -71.51990000
C      -47.67330000     -31.76380000     -71.64500000
H      -48.30120000     -31.42350000     -70.80190000
H      -46.99340000     -31.04070000     -72.05060000
C      -46.89850000     -32.95910000     -71.02490000
H      -47.55190000     -33.66920000     -70.57310000
H      -46.36620000     -33.46060000     -71.88400000
C      -44.88580000     -35.64070000     -70.11880000
H      -44.74870000     -36.66300000     -69.69780000
H      -45.85490000     -35.42290000     -70.42970000
C      -44.44750000     -34.57930000     -69.16020000
C      -43.50390000     -34.70020000     -68.22050000
C      -44.93590000     -33.20680000     -69.26500000
H      -43.10870000     -35.70890000     -68.04330000
C      -44.23550000     -32.34670000     -68.32300000
C      -45.94780000     -32.42990000     -69.98870000
C      -45.88630000     -31.07950000     -69.60800000
S      -43.08260000     -33.16880000     -67.27960000
S      -44.68370000     -30.70090000     -68.33020000
H      -46.49250000     -30.20860000     -69.91940000
