40
Properties=species:S:1:pos:R:3 #=T CELL(abcABC):=T 1.889726e+02=T 90.00000=T Traj:=T positionsangstrom=T Step:=T 0=T Bead:=T pbc="F F F"
C      -45.66540000     -31.54630000     -74.84930000
C      -46.67180000     -32.47040000     -74.46810000
C      -46.31960000     -33.78870000     -74.38950000
C      -44.91650000     -34.21560000     -74.65040000
C      -43.97050000     -33.25920000     -75.01500000
C      -44.37520000     -31.90590000     -74.97450000
H      -45.84160000     -30.47470000     -74.81390000
H      -46.99370000     -34.50090000     -73.93590000
H      -42.96960000     -33.42440000     -75.27050000
H      -43.63800000     -31.14350000     -75.31770000
C      -44.74690000     -35.67670000     -74.52870000
H      -43.71030000     -35.93250000     -74.66690000
H      -45.31500000     -36.14850000     -75.24570000
C      -48.09700000     -32.08430000     -74.26720000
H      -48.24040000     -31.01040000     -74.54370000
H      -48.86590000     -32.60450000     -74.87590000
S      -45.15800000     -36.49430000     -72.89550000
S      -48.74120000     -32.40670000     -72.46290000
C      -44.23640000     -35.38390000     -71.78570000
H      -43.11400000     -35.52530000     -71.89840000
H      -44.39570000     -34.31170000     -72.06960000
C      -47.47510000     -31.81040000     -71.25100000
H      -48.05480000     -31.34040000     -70.49900000
H      -46.88950000     -30.98840000     -71.69790000
C      -46.63280000     -32.91360000     -70.71610000
H      -47.20640000     -33.84280000     -70.52020000
H      -45.98940000     -33.38960000     -71.48210000
C      -44.63400000     -35.69680000     -70.32340000
H      -44.29650000     -36.71070000     -70.00450000
H      -45.72080000     -35.68590000     -70.30450000
C      -44.17130000     -34.67250000     -69.26350000
C      -43.13450000     -35.03540000     -68.37320000
C      -44.73160000     -33.37260000     -69.01000000
H      -42.48430000     -35.83800000     -68.32420000
C      -44.03340000     -32.73910000     -68.00700000
C      -45.77070000     -32.47420000     -69.51570000
C      -45.84310000     -31.28870000     -68.88330000
S      -42.74310000     -33.63930000     -67.32020000
S      -44.47280000     -31.10300000     -67.76920000
H      -46.64300000     -30.67170000     -69.19420000
