40
Properties=species:S:1:pos:R:3 #=T CELL(abcABC):=T 1.889726e+02=T 90.00000=T Traj:=T positionsangstrom=T Step:=T 0=T Bead:=T pbc="F F F"
C      -45.97770000     -31.49880000     -74.54720000
C      -46.90680000     -32.53880000     -74.31750000
C      -46.47040000     -33.83070000     -74.36920000
C      -45.12590000     -34.15410000     -74.42030000
C      -44.17120000     -33.11620000     -74.64050000
C      -44.61960000     -31.79170000     -74.76300000
H      -46.38620000     -30.45910000     -74.45730000
H      -47.33360000     -34.49820000     -74.31570000
H      -43.15830000     -33.54340000     -74.87850000
H      -43.94610000     -30.99160000     -75.03950000
C      -44.70450000     -35.61040000     -74.56240000
H      -43.70760000     -35.66920000     -74.83520000
H      -45.20040000     -36.16780000     -75.27170000
C      -48.39560000     -32.38790000     -74.08750000
H      -48.75410000     -31.49320000     -74.61530000
H      -48.93220000     -33.12090000     -74.66760000
S      -44.89800000     -36.63490000     -73.00110000
S      -48.81560000     -32.54710000     -72.37330000
C      -44.02370000     -35.63850000     -71.68390000
H      -42.92460000     -35.98180000     -71.64750000
H      -43.93720000     -34.59670000     -72.05770000
C      -47.53360000     -31.68220000     -71.41280000
H      -47.90950000     -30.94040000     -70.65800000
H      -46.92440000     -31.03060000     -72.00380000
C      -46.55090000     -32.69680000     -70.81570000
H      -47.10130000     -33.60680000     -70.51020000
H      -45.86880000     -33.18120000     -71.55060000
C      -44.84460000     -35.62210000     -70.37140000
H      -44.99950000     -36.64020000     -69.96800000
H      -45.79680000     -35.24850000     -70.72820000
C      -44.27840000     -34.67320000     -69.33540000
C      -43.19230000     -35.01470000     -68.58030000
C      -44.66960000     -33.24940000     -69.11440000
H      -42.69030000     -35.96150000     -68.51090000
C      -43.91160000     -32.72550000     -68.08920000
C      -45.62780000     -32.29840000     -69.67080000
C      -45.51410000     -31.04530000     -69.04120000
S      -42.70520000     -33.75860000     -67.39340000
S      -44.23970000     -30.98700000     -67.83770000
H      -46.30590000     -30.42000000     -69.28570000
