40
Properties=species:S:1:pos:R:3 #=T CELL(abcABC):=T 1.889726e+02=T 90.00000=T Traj:=T positionsangstrom=T Step:=T 0=T Bead:=T pbc="F F F"
C      -45.86510000     -31.32530000     -74.24010000
C      -46.89360000     -32.31110000     -74.21250000
C      -46.59670000     -33.69240000     -74.41200000
C      -45.25670000     -34.10970000     -74.44620000
C      -44.21510000     -33.07590000     -74.44270000
C      -44.57570000     -31.76430000     -74.30500000
H      -46.14620000     -30.33520000     -74.37840000
H      -47.40830000     -34.44890000     -74.38180000
H      -43.14400000     -33.39520000     -74.32860000
H      -43.75940000     -31.04180000     -74.40470000
C      -45.00520000     -35.55150000     -74.57560000
H      -43.87150000     -35.61580000     -74.99900000
H      -45.69280000     -35.97160000     -75.33950000
C      -48.27590000     -31.88500000     -73.94470000
H      -48.37480000     -30.79770000     -73.75110000
H      -49.00360000     -32.35280000     -74.58580000
S      -45.11540000     -36.51240000     -73.01350000
S      -48.81260000     -32.66790000     -72.32620000
C      -44.33210000     -35.37660000     -71.80460000
H      -43.22820000     -35.38690000     -71.94670000
H      -44.68390000     -34.38470000     -72.07210000
C      -47.61530000     -32.00380000     -71.06560000
H      -48.27790000     -31.60230000     -70.24960000
H      -47.06050000     -31.25070000     -71.56660000
C      -46.80190000     -33.13990000     -70.42760000
H      -47.45230000     -33.56780000     -69.68500000
H      -46.44720000     -33.77500000     -71.25170000
C      -44.58500000     -35.78950000     -70.36390000
H      -44.09780000     -36.79920000     -70.13610000
H      -45.64580000     -36.01360000     -70.24640000
C      -43.98040000     -34.75300000     -69.40770000
C      -42.96750000     -35.04180000     -68.53610000
C      -44.56330000     -33.43380000     -69.21770000
H      -42.36920000     -35.93320000     -68.25230000
C      -43.73150000     -32.70160000     -68.34330000
C      -45.62890000     -32.57550000     -69.73340000
C      -45.60810000     -31.28210000     -69.24170000
S      -42.56850000     -33.67230000     -67.55220000
S      -44.13820000     -31.00120000     -68.25540000
H      -46.21040000     -30.38960000     -69.32190000
