40
Properties=species:S:1:pos:R:3 #=T CELL(abcABC):=T 1.889726e+02=T 90.00000=T Traj:=T positionsangstrom=T Step:=T 0=T Bead:=T pbc="F F F"
C      -46.02640000     -31.41020000     -74.16050000
C      -46.90250000     -32.49590000     -74.21400000
C      -46.42840000     -33.81390000     -74.35610000
C      -45.06020000     -34.05290000     -74.62030000
C      -44.19160000     -32.96390000     -74.67330000
C      -44.65390000     -31.65590000     -74.45440000
H      -46.19520000     -30.32240000     -74.13700000
H      -47.07910000     -34.68560000     -74.16290000
H      -43.12450000     -33.12650000     -74.73060000
H      -43.92530000     -30.83250000     -74.50920000
C      -44.55390000     -35.50830000     -74.56720000
H      -43.53680000     -35.54500000     -74.77280000
H      -45.23430000     -36.00740000     -75.34970000
C      -48.42440000     -32.36120000     -73.95470000
H      -48.83800000     -31.48960000     -74.36460000
H      -48.82400000     -33.14540000     -74.55750000
S      -45.04920000     -36.48910000     -73.02370000
S      -49.05490000     -32.51340000     -72.19700000
C      -44.14630000     -35.51560000     -71.73720000
H      -43.09810000     -35.75230000     -71.60890000
H      -44.22940000     -34.40520000     -71.95750000
C      -47.63950000     -31.84360000     -71.10980000
H      -48.12480000     -31.69540000     -70.15600000
H      -47.40310000     -30.75820000     -71.39170000
C      -46.38980000     -32.75830000     -71.05260000
H      -46.68260000     -33.84070000     -71.04040000
H      -45.84400000     -32.69440000     -71.95280000
C      -44.63420000     -35.82780000     -70.31860000
H      -44.38040000     -36.75940000     -69.95470000
H      -45.73760000     -35.74980000     -70.29580000
C      -44.10790000     -34.78360000     -69.31800000
C      -43.07780000     -35.08030000     -68.48090000
C      -44.60050000     -33.42690000     -69.17670000
H      -42.45490000     -36.03900000     -68.49290000
C      -43.87600000     -32.73450000     -68.18720000
C      -45.52750000     -32.52220000     -69.82900000
C      -45.52150000     -31.23840000     -69.27190000
S      -42.61270000     -33.70880000     -67.51200000
S      -44.26070000     -31.07260000     -68.06290000
H      -46.02880000     -30.28210000     -69.57230000
