40
Properties=species:S:1:pos:R:3 #=T CELL(abcABC):=T 1.889726e+02=T 90.00000=T Traj:=T positionsangstrom=T Step:=T 0=T Bead:=T pbc="F F F"
C      -44.98070000     -35.53560000     -71.97940000
C      -44.06190000     -35.52420000     -70.92470000
C      -42.92610000     -34.78060000     -71.03570000
C      -42.71070000     -34.00970000     -72.21030000
C      -43.64450000     -34.00700000     -73.23700000
C      -44.77360000     -34.77770000     -73.14880000
H      -45.83570000     -36.13970000     -71.80630000
H      -42.10690000     -34.75670000     -70.24060000
H      -43.46700000     -33.37890000     -74.10660000
H      -45.53390000     -34.78670000     -74.00220000
C      -41.63150000     -32.95400000     -72.10310000
H      -41.09830000     -32.78300000     -73.01630000
H      -40.94850000     -33.27660000     -71.32040000
C      -44.30170000     -36.16970000     -69.61180000
H      -43.85060000     -37.15790000     -69.41660000
H      -43.73940000     -35.57950000     -68.87380000
S      -42.28990000     -31.22780000     -71.78530000
S      -46.15950000     -36.21400000     -68.94660000
C      -43.36750000     -31.47190000     -70.23960000
H      -43.43390000     -32.60710000     -70.14820000
H      -42.91650000     -31.19600000     -69.39730000
C      -46.38450000     -34.64030000     -68.06130000
H      -45.68110000     -34.56340000     -67.22430000
H      -47.36100000     -34.68920000     -67.59140000
C      -46.22260000     -33.37980000     -68.92940000
H      -46.39920000     -32.47750000     -68.33490000
H      -45.13890000     -33.39480000     -69.12960000
C      -44.70700000     -30.80780000     -70.36710000
H      -44.55860000     -29.73390000     -70.55430000
H      -45.24430000     -30.88840000     -69.37980000
C      -45.64250000     -31.36410000     -71.40390000
C      -45.71040000     -30.75500000     -72.63030000
C      -46.49690000     -32.51830000     -71.30980000
H      -45.28250000     -29.79580000     -72.86100000
C      -47.23120000     -32.72170000     -72.51580000
C      -46.89250000     -33.37410000     -70.22380000
C      -47.89730000     -34.18470000     -70.66980000
S      -46.99690000     -31.41360000     -73.66670000
S      -48.46330000     -33.84430000     -72.33400000
H      -48.49170000     -34.87410000     -70.21440000
