40
Properties=species:S:1:pos:R:3 #=T CELL(abcABC):=T 1.889726e+02=T 90.00000=T Traj:=T positionsangstrom=T Step:=T 0=T Bead:=T pbc="F F F"
C      -45.92930000     -31.41630000     -74.23590000
C      -46.91870000     -32.41090000     -74.15160000
C      -46.56360000     -33.79450000     -74.29470000
C      -45.24260000     -34.11170000     -74.56740000
C      -44.25080000     -33.07770000     -74.59170000
C      -44.58290000     -31.79510000     -74.27890000
H      -46.13690000     -30.43880000     -73.88790000
H      -47.23280000     -34.65640000     -74.30570000
H      -43.22690000     -33.27210000     -74.91080000
H      -43.78860000     -31.00850000     -74.14750000
C      -44.77460000     -35.53750000     -74.70600000
H      -43.70440000     -35.68340000     -74.81570000
H      -45.13680000     -36.20840000     -75.43130000
C      -48.35690000     -32.03290000     -73.91700000
H      -48.45110000     -30.89210000     -74.08740000
H      -48.93350000     -32.55030000     -74.68500000
S      -45.08870000     -36.38250000     -73.05950000
S      -48.99770000     -32.59840000     -72.27770000
C      -44.02880000     -35.48020000     -71.82390000
H      -43.01750000     -35.62680000     -72.03510000
H      -44.13660000     -34.37620000     -72.11960000
C      -47.60900000     -32.04090000     -71.18970000
H      -48.04720000     -31.49710000     -70.32730000
H      -46.99910000     -31.33770000     -71.73170000
C      -46.68740000     -33.08400000     -70.60160000
H      -47.18750000     -33.84850000     -70.00450000
H      -46.17170000     -33.77640000     -71.37280000
C      -44.57570000     -35.69330000     -70.36610000
H      -44.22370000     -36.70390000     -70.11520000
H      -45.65610000     -35.68420000     -70.34900000
C      -44.05150000     -34.75240000     -69.35860000
C      -43.13390000     -35.10690000     -68.44350000
C      -44.54000000     -33.38450000     -69.18580000
H      -42.50230000     -36.06850000     -68.54090000
C      -43.71770000     -32.64100000     -68.27600000
C      -45.53940000     -32.53930000     -69.83330000
C      -45.47890000     -31.24130000     -69.35120000
S      -42.58520000     -33.71180000     -67.48210000
S      -44.22570000     -31.00960000     -68.11540000
H      -46.12410000     -30.34420000     -69.40060000
