40
Properties=species:S:1:pos:R:3 #=T CELL(abcABC):=T 1.889726e+02=T 90.00000=T Traj:=T positionsangstrom=T Step:=T 0=T Bead:=T pbc="F F F"
C      -43.18290000     -32.73550000     -67.37420000
C      -43.20210000     -33.51680000     -68.55100000
C      -42.87180000     -32.87940000     -69.73700000
C      -42.55360000     -31.50420000     -69.80090000
C      -42.56300000     -30.73670000     -68.66220000
C      -42.81190000     -31.34310000     -67.41810000
H      -43.40090000     -33.19370000     -66.39980000
H      -42.99040000     -33.49490000     -70.63540000
H      -42.23040000     -29.71190000     -68.76340000
H      -42.70850000     -30.70510000     -66.50020000
C      -42.20180000     -30.94640000     -71.15190000
H      -41.40550000     -31.52660000     -71.65520000
H      -41.94770000     -29.93540000     -70.96720000
C      -43.53720000     -35.02940000     -68.47970000
H      -42.58530000     -35.49180000     -68.15060000
H      -44.25520000     -35.25010000     -67.74870000
S      -43.57480000     -31.04380000     -72.35110000
S      -44.09120000     -35.88330000     -70.04440000
C      -45.11510000     -30.73600000     -71.31740000
H      -44.80880000     -30.17370000     -70.45910000
H      -45.79980000     -30.12040000     -71.90620000
C      -45.92950000     -36.20700000     -69.70520000
H      -46.14580000     -36.36380000     -68.67480000
H      -46.14530000     -37.16490000     -70.24390000
C      -46.86670000     -35.09360000     -70.19300000
H      -47.90020000     -35.28320000     -69.69150000
H      -46.44200000     -34.16370000     -69.80370000
C      -45.94440000     -32.05480000     -71.07910000
H      -46.73830000     -31.84140000     -70.41220000
H      -45.32140000     -32.85500000     -70.67710000
C      -46.69840000     -32.53180000     -72.36520000
C      -46.92670000     -31.79850000     -73.51910000
C      -47.02070000     -33.90300000     -72.56110000
H      -46.56500000     -30.76660000     -73.66640000
C      -47.70080000     -34.10390000     -73.75800000
C      -47.13610000     -35.05070000     -71.72670000
C      -47.62560000     -36.15770000     -72.32290000
S      -47.80620000     -32.66480000     -74.71520000
S      -48.19010000     -35.81690000     -73.98970000
H      -47.93130000     -37.06610000     -71.93610000
