40
Properties=species:S:1:pos:R:3 #=T CELL(abcABC):=T 1.889726e+02=T 90.00000=T Traj:=T positionsangstrom=T Step:=T 0=T Bead:=T pbc="F F F"
C      -45.75180000     -31.45590000     -73.31240000
C      -46.93650000     -32.19120000     -73.70040000
C      -46.72630000     -33.49690000     -74.30140000
C      -45.44840000     -34.00470000     -74.39730000
C      -44.32420000     -33.18010000     -74.16840000
C      -44.49740000     -31.94960000     -73.56460000
H      -45.86050000     -30.40040000     -72.96670000
H      -47.51490000     -34.15170000     -74.65500000
H      -43.34460000     -33.50590000     -74.53700000
H      -43.59160000     -31.43070000     -73.27530000
C      -45.29820000     -35.46200000     -74.73550000
H      -44.31360000     -35.67790000     -75.22350000
H      -46.13880000     -35.90580000     -75.31100000
C      -48.29270000     -31.58080000     -73.51150000
H      -48.31130000     -30.48430000     -73.62660000
H      -49.06640000     -31.98090000     -74.21900000
S      -45.34050000     -36.65410000     -73.28990000
S      -49.05910000     -32.05490000     -71.89740000
C      -44.18660000     -35.87970000     -72.14460000
H      -43.36220000     -36.57020000     -71.97030000
H      -43.91690000     -34.95840000     -72.53840000
C      -47.82180000     -31.75380000     -70.60570000
H      -48.26350000     -31.51490000     -69.59770000
H      -47.24370000     -30.79100000     -70.65880000
C      -46.83020000     -32.88910000     -70.51070000
H      -47.38690000     -33.76850000     -70.12320000
H      -46.45690000     -33.15630000     -71.49190000
C      -44.89670000     -35.72920000     -70.77600000
H      -44.98500000     -36.65140000     -70.18270000
H      -45.91100000     -35.35270000     -71.00100000
C      -44.06850000     -34.76630000     -69.91250000
C      -42.87710000     -35.10600000     -69.38990000
C      -44.47650000     -33.42130000     -69.46110000
H      -42.49560000     -36.11530000     -69.45750000
C      -43.46760000     -32.89200000     -68.64300000
C      -45.60870000     -32.54590000     -69.60610000
C      -45.45310000     -31.39740000     -68.89570000
S      -42.08260000     -33.86210000     -68.36220000
S      -43.93010000     -31.32390000     -68.04100000
H      -46.25100000     -30.65570000     -68.87410000
