40
Properties=species:S:1:pos:R:3 #=T CELL(abcABC):=T 1.889726e+02=T 90.00000=T Traj:=T positionsangstrom=T Step:=T 0=T Bead:=T pbc="F F F"
C      -45.74430000     -31.34330000     -73.65230000
C      -46.86560000     -32.17390000     -73.81160000
C      -46.69860000     -33.55130000     -74.12170000
C      -45.42130000     -34.03150000     -74.23820000
C      -44.29840000     -33.24050000     -73.94760000
C      -44.45030000     -31.86840000     -73.73460000
H      -45.85580000     -30.36620000     -73.32960000
H      -47.53710000     -34.23630000     -74.34670000
H      -43.29030000     -33.68830000     -73.89270000
H      -43.54450000     -31.23990000     -73.62060000
C      -45.23750000     -35.40850000     -74.79240000
H      -44.35080000     -35.45070000     -75.38580000
H      -46.16440000     -35.62390000     -75.51800000
C      -48.20640000     -31.53360000     -73.55020000
H      -48.10010000     -30.48070000     -73.51700000
H      -48.91250000     -31.80970000     -74.30740000
S      -45.17000000     -36.69080000     -73.45790000
S      -49.03510000     -32.25020000     -71.96180000
C      -44.23940000     -35.92880000     -72.05770000
H      -43.29700000     -36.57710000     -71.94010000
H      -43.77390000     -34.97860000     -72.31910000
C      -47.71590000     -31.75220000     -70.78600000
H      -48.22390000     -31.30640000     -69.95870000
H      -46.95580000     -31.19550000     -71.36170000
C      -46.98310000     -32.97380000     -70.19200000
H      -47.58770000     -33.45810000     -69.38950000
H      -46.81680000     -33.68620000     -70.99210000
C      -44.96360000     -35.78740000     -70.72080000
H      -45.06080000     -36.75420000     -70.25380000
H      -45.99500000     -35.42410000     -70.78650000
C      -44.17440000     -34.76840000     -69.75740000
C      -42.94000000     -35.10230000     -69.27190000
C      -44.59680000     -33.46490000     -69.27490000
H      -42.28170000     -35.84760000     -69.66300000
C      -43.55650000     -32.83080000     -68.51490000
C      -45.66510000     -32.56720000     -69.54670000
C      -45.50580000     -31.29820000     -69.01710000
S      -42.10900000     -33.82550000     -68.33820000
S      -43.99810000     -31.16950000     -68.07520000
H      -46.26960000     -30.56160000     -69.14060000
