40
Properties=species:S:1:pos:R:3 #=T CELL(abcABC):=T 1.889726e+02=T 90.00000=T Traj:=T positionsangstrom=T Step:=T 0=T Bead:=T pbc="F F F"
C      -47.98080000     -34.25050000     -68.25530000
C      -48.05840000     -33.45030000     -69.44930000
C      -47.24260000     -32.27270000     -69.47390000
C      -46.39000000     -31.95140000     -68.37260000
C      -46.47950000     -32.72710000     -67.22130000
C      -47.24970000     -33.84690000     -67.14880000
H      -48.46370000     -35.18950000     -68.46610000
H      -47.27110000     -31.74550000     -70.43000000
H      -45.84990000     -32.35100000     -66.39650000
H      -47.19020000     -34.42300000     -66.25590000
C      -45.61990000     -30.68190000     -68.35170000
H      -45.11330000     -30.49390000     -67.35440000
H      -46.32490000     -29.77820000     -68.53450000
C      -48.77880000     -33.82650000     -70.70750000
H      -49.67270000     -34.37770000     -70.46670000
H      -49.10910000     -32.89900000     -71.21830000
S      -44.30900000     -30.65410000     -69.74320000
S      -47.86710000     -34.80100000     -71.95880000
C      -43.33690000     -32.24440000     -69.40780000
H      -42.27100000     -32.04990000     -69.51650000
H      -43.47590000     -32.51390000     -68.34780000
C      -46.45700000     -35.45040000     -70.95890000
H      -46.87680000     -36.18030000     -70.20370000
H      -45.98030000     -34.69040000     -70.36360000
C      -45.32590000     -36.17670000     -71.79980000
H      -44.55140000     -36.53690000     -71.09190000
H      -45.78130000     -36.93310000     -72.40980000
C      -43.65150000     -33.46680000     -70.30380000
H      -44.70000000     -33.59990000     -70.21510000
H      -43.11050000     -34.36160000     -69.90580000
C      -43.47500000     -33.22080000     -71.82130000
C      -42.72040000     -32.22130000     -72.31550000
C      -44.06030000     -34.04620000     -72.83970000
H      -42.34480000     -31.36160000     -71.77820000
C      -43.85670000     -33.45840000     -74.05060000
C      -44.77250000     -35.26100000     -72.94210000
C      -44.92420000     -35.66030000     -74.24900000
S      -42.62810000     -32.18000000     -74.09150000
S      -44.35330000     -34.47730000     -75.35250000
H      -45.52170000     -36.53590000     -74.53690000
