40
Properties=species:S:1:pos:R:3 #=T CELL(abcABC):=T 1.889726e+02=T 90.00000=T Traj:=T positionsangstrom=T Step:=T 0=T Bead:=T pbc="F F F"
C      -45.74780000     -31.37530000     -74.08110000
C      -46.82370000     -32.28890000     -74.16790000
C      -46.60980000     -33.64860000     -74.47680000
C      -45.24450000     -34.10520000     -74.50120000
C      -44.21900000     -33.16650000     -74.34150000
C      -44.45730000     -31.77160000     -74.29260000
H      -45.96910000     -30.33610000     -73.80810000
H      -47.40150000     -34.35140000     -74.63420000
H      -43.16320000     -33.44630000     -74.31780000
H      -43.62550000     -31.10330000     -74.29960000
C      -44.93420000     -35.56170000     -74.61410000
H      -43.97980000     -35.67220000     -75.07120000
H      -45.67350000     -35.98390000     -75.17030000
C      -48.26670000     -31.87850000     -73.89240000
H      -48.41820000     -30.80490000     -73.86890000
H      -48.96750000     -32.15360000     -74.67900000
S      -45.21840000     -36.44830000     -73.00000000
S      -48.94260000     -32.69330000     -72.38360000
C      -44.31810000     -35.42260000     -71.75360000
H      -43.21860000     -35.63880000     -71.79920000
H      -44.52760000     -34.42540000     -71.90380000
C      -47.76020000     -32.04670000     -71.12640000
H      -48.30090000     -31.48870000     -70.38810000
H      -47.22940000     -31.16690000     -71.59210000
C      -46.72160000     -33.03870000     -70.56160000
H      -47.24430000     -33.98290000     -70.11990000
H      -46.15690000     -33.47650000     -71.32040000
C      -44.82020000     -35.63860000     -70.33140000
H      -44.68820000     -36.64770000     -70.04190000
H      -45.88880000     -35.44670000     -70.28500000
C      -44.14970000     -34.80190000     -69.29300000
C      -42.96690000     -35.11850000     -68.71920000
C      -44.60770000     -33.42930000     -69.08320000
H      -42.29350000     -35.92940000     -68.72380000
C      -43.76710000     -32.80130000     -68.19900000
C      -45.67800000     -32.58060000     -69.61370000
C      -45.53980000     -31.30170000     -69.13890000
S      -42.29960000     -33.63430000     -67.79650000
S      -44.12440000     -31.03310000     -68.14590000
H      -46.10820000     -30.48530000     -69.53770000
