40
Properties=species:S:1:pos:R:3 #=T CELL(abcABC):=T 1.889726e+02=T 90.00000=T Traj:=T positionsangstrom=T Step:=T 0=T Bead:=T pbc="F F F"
C      -47.45210000     -33.77710000     -75.35700000
C      -47.04240000     -32.70440000     -74.52590000
C      -47.60120000     -32.58300000     -73.25000000
C      -48.47320000     -33.54090000     -72.69170000
C      -48.75060000     -34.67050000     -73.52860000
C      -48.36410000     -34.73110000     -74.85260000
H      -47.07750000     -33.89200000     -76.42250000
H      -47.35920000     -31.79340000     -72.63610000
H      -49.16050000     -35.51880000     -72.98510000
H      -48.68060000     -35.61210000     -75.37950000
C      -49.09290000     -33.34690000     -71.35020000
H      -50.16410000     -33.34730000     -71.39950000
H      -48.89620000     -32.36390000     -70.97370000
C      -46.01610000     -31.69280000     -75.08510000
H      -45.97490000     -31.66550000     -76.13500000
H      -46.26460000     -30.72100000     -74.68870000
S      -48.70000000     -34.60640000     -70.04080000
S      -44.09850000     -31.92890000     -74.71950000
C      -46.92130000     -34.46520000     -69.84190000
H      -46.78230000     -34.91860000     -68.89090000
H      -46.37290000     -35.04390000     -70.52170000
C      -44.18870000     -32.01360000     -72.78880000
H      -45.16810000     -31.61920000     -72.56550000
H      -43.37910000     -31.40710000     -72.35170000
C      -44.08920000     -33.47810000     -72.29810000
H      -45.04410000     -33.99650000     -72.18890000
H      -43.50770000     -34.04110000     -73.03680000
C      -46.30970000     -33.07420000     -69.59510000
H      -46.95920000     -32.40730000     -69.03370000
H      -46.26990000     -32.55790000     -70.55690000
C      -44.88210000     -33.18270000     -68.94440000
C      -44.74890000     -33.05360000     -67.58490000
C      -43.64990000     -33.43200000     -69.63670000
H      -45.45100000     -32.66760000     -66.90310000
C      -42.60710000     -33.58660000     -68.77760000
C      -43.24420000     -33.65560000     -71.04250000
C      -41.91180000     -34.00820000     -71.11530000
S      -43.04690000     -33.09940000     -67.08420000
S      -41.13140000     -33.94340000     -69.54140000
H      -41.30370000     -34.15240000     -72.04690000
