40
Properties=species:S:1:pos:R:3 #=T CELL(abcABC):=T 1.889726e+02=T 90.00000=T Traj:=T positionsangstrom=T Step:=T 0=T Bead:=T pbc="F F F"
C      -48.57720000     -33.96100000     -68.11400000
C      -48.17790000     -33.49640000     -69.41310000
C      -47.23750000     -32.50840000     -69.53980000
C      -46.66210000     -31.95740000     -68.36090000
C      -47.03530000     -32.48580000     -67.13010000
C      -47.96640000     -33.51360000     -66.95310000
H      -49.17360000     -34.96590000     -68.08810000
H      -46.94550000     -32.08200000     -70.59910000
H      -46.41710000     -32.03720000     -66.36210000
H      -48.19510000     -33.94770000     -66.00440000
C      -45.79470000     -30.71770000     -68.23210000
H      -45.30430000     -30.70980000     -67.27530000
H      -46.49010000     -29.88170000     -68.24360000
C      -48.60450000     -34.18450000     -70.69060000
H      -48.97930000     -35.20330000     -70.38280000
H      -49.43090000     -33.71990000     -71.13070000
S      -44.59400000     -30.49950000     -69.63770000
S      -47.29830000     -34.27190000     -72.03370000
C      -43.54050000     -32.01870000     -69.38780000
H      -42.49000000     -31.84620000     -69.45020000
H      -43.75890000     -32.28440000     -68.31870000
C      -46.63360000     -36.00490000     -71.73840000
H      -47.05120000     -36.70480000     -72.50700000
H      -46.94180000     -36.39730000     -70.73120000
C      -45.15060000     -36.20760000     -71.78870000
H      -44.61520000     -35.89690000     -70.93890000
H      -44.92070000     -37.23740000     -71.76140000
C      -43.91370000     -33.27970000     -70.25860000
H      -45.00730000     -33.58850000     -70.12160000
H      -43.30300000     -33.96720000     -69.84710000
C      -43.63650000     -33.22830000     -71.75560000
C      -42.86100000     -32.19080000     -72.29030000
C      -43.91050000     -34.18260000     -72.80210000
H      -42.64010000     -31.34010000     -71.80820000
C      -43.59550000     -33.69590000     -74.10010000
C      -44.46190000     -35.49860000     -72.96480000
C      -44.44680000     -35.96060000     -74.27340000
S      -42.73120000     -32.18580000     -73.99430000
S      -43.76220000     -34.74000000     -75.41230000
H      -44.74060000     -36.95110000     -74.59590000
