40
Properties=species:S:1:pos:R:3 #=T CELL(abcABC):=T 1.889726e+02=T 90.00000=T Traj:=T positionsangstrom=T Step:=T 0=T Bead:=T pbc="F F F"
C      -48.53060000     -31.96460000     -73.83990000
C      -47.06570000     -31.76660000     -73.88350000
C      -46.50040000     -31.15540000     -72.76690000
C      -47.24490000     -30.75610000     -71.68560000
C      -48.61910000     -31.05320000     -71.59180000
C      -49.27400000     -31.65880000     -72.68060000
H      -49.05950000     -32.36390000     -74.68360000
H      -45.43570000     -30.98450000     -72.70990000
H      -49.16960000     -30.73890000     -70.74450000
H      -50.33220000     -31.96330000     -72.57570000
C      -46.53420000     -29.94150000     -70.65900000
H      -46.86720000     -28.92500000     -70.72550000
H      -45.53790000     -29.74100000     -70.92970000
C      -46.12400000     -32.19710000     -75.02710000
H      -46.54650000     -33.16060000     -75.44270000
H      -46.23300000     -31.39110000     -75.74930000
S      -46.38290000     -30.43670000     -68.94840000
S      -44.29170000     -32.41660000     -74.71320000
C      -45.35530000     -32.00960000     -69.12660000
H      -44.37350000     -31.66810000     -69.68620000
H      -45.18210000     -32.37090000     -68.11810000
C      -44.30120000     -33.74940000     -73.46510000
H      -43.69370000     -34.58360000     -73.80460000
H      -45.30580000     -34.08600000     -73.19630000
C      -43.53630000     -33.29250000     -72.12660000
H      -42.64780000     -32.71180000     -72.37200000
H      -44.28640000     -32.57270000     -71.76570000
C      -46.00190000     -33.19400000     -69.82990000
H      -45.99200000     -32.85210000     -70.91180000
H      -47.02950000     -33.28390000     -69.49780000
C      -45.33920000     -34.50490000     -69.63140000
C      -45.75510000     -35.37180000     -68.69280000
C      -44.13680000     -35.02820000     -70.32980000
H      -46.61580000     -35.22410000     -68.02410000
C      -43.77550000     -36.32500000     -69.92070000
C      -43.22530000     -34.51820000     -71.28440000
C      -42.23230000     -35.39390000     -71.58800000
S      -44.93770000     -36.92470000     -68.72460000
S      -42.28380000     -36.89960000     -70.71710000
H      -41.63400000     -35.28610000     -72.44080000
