40
Properties=species:S:1:pos:R:3 #=T CELL(abcABC):=T 1.889726e+02=T 90.00000=T Traj:=T positionsangstrom=T Step:=T 0=T Bead:=T pbc="F F F"
C      -45.88080000     -31.04710000     -74.29400000
C      -47.01010000     -31.74530000     -73.92520000
C      -47.02390000     -33.14090000     -74.02310000
C      -45.88780000     -33.83750000     -74.49880000
C      -44.69190000     -33.11420000     -74.89710000
C      -44.67900000     -31.73020000     -74.73600000
H      -45.75910000     -29.92480000     -74.28950000
H      -47.91860000     -33.58470000     -73.72070000
H      -43.93460000     -33.70710000     -75.33620000
H      -43.69860000     -31.21320000     -75.03070000
C      -45.97040000     -35.35890000     -74.67930000
H      -45.06620000     -35.82640000     -75.21580000
H      -46.89950000     -35.52270000     -75.21170000
C      -48.30500000     -31.21600000     -73.35430000
H      -48.34200000     -30.15360000     -73.20870000
H      -49.26890000     -31.44250000     -73.93020000
S      -46.31290000     -36.22120000     -72.96240000
S      -48.71440000     -31.86120000     -71.65090000
C      -44.84630000     -35.71100000     -71.99940000
H      -43.89400000     -36.30950000     -72.35200000
H      -44.68980000     -34.61410000     -72.29480000
C      -47.22470000     -31.59030000     -70.69120000
H      -47.48670000     -31.21900000     -69.77480000
H      -46.72160000     -30.68850000     -71.14320000
C      -46.31340000     -32.81480000     -70.51630000
H      -46.90070000     -33.67290000     -70.05640000
H      -46.07490000     -33.18500000     -71.52650000
C      -45.11360000     -35.90050000     -70.49970000
H      -44.97230000     -37.01140000     -70.39260000
H      -46.15030000     -35.66920000     -70.22540000
C      -44.10550000     -35.06600000     -69.70130000
C      -43.03640000     -35.72050000     -69.12380000
C      -44.18740000     -33.67720000     -69.28850000
H      -42.64710000     -36.67150000     -69.38920000
C      -43.11680000     -33.26650000     -68.57390000
C      -45.02960000     -32.57550000     -69.65990000
C      -44.65000000     -31.38270000     -69.08420000
S      -42.05250000     -34.56420000     -68.16460000
S      -43.25050000     -31.61860000     -68.02060000
H      -45.28460000     -30.49400000     -69.05550000
