40
Properties=species:S:1:pos:R:3 #=T CELL(abcABC):=T 1.889726e+02=T 90.00000=T Traj:=T positionsangstrom=T Step:=T 0=T Bead:=T pbc="F F F"
C      -45.87390000     -31.18170000     -74.13900000
C      -47.06850000     -31.80500000     -73.78090000
C      -47.23400000     -33.14710000     -74.00940000
C      -46.17020000     -33.94060000     -74.48510000
C      -44.99980000     -33.27160000     -74.81030000
C      -44.82580000     -31.93570000     -74.66600000
H      -45.67310000     -30.14170000     -73.98280000
H      -48.13510000     -33.60440000     -73.73980000
H      -44.16910000     -33.84180000     -75.08060000
H      -43.82290000     -31.55090000     -74.97100000
C      -46.34290000     -35.40790000     -74.74740000
H      -45.61940000     -35.75240000     -75.53510000
H      -47.42020000     -35.64090000     -75.10000000
C      -48.12660000     -30.94900000     -73.17560000
H      -47.71600000     -29.97270000     -73.16920000
H      -49.12820000     -30.95660000     -73.78850000
S      -46.30250000     -36.36640000     -73.17890000
S      -48.59900000     -31.32820000     -71.47020000
C      -44.91820000     -35.73290000     -72.10650000
H      -43.93160000     -36.25320000     -72.29720000
H      -44.78200000     -34.62590000     -72.45340000
C      -46.96980000     -31.21570000     -70.63340000
H      -47.31950000     -30.86370000     -69.69440000
H      -46.33110000     -30.45180000     -71.13280000
C      -46.15800000     -32.53140000     -70.53340000
H      -46.86700000     -33.23520000     -70.07800000
H      -45.99280000     -32.90970000     -71.55700000
C      -45.33570000     -35.85160000     -70.53990000
H      -45.38220000     -36.86010000     -70.23440000
H      -46.32270000     -35.28240000     -70.53370000
C      -44.29700000     -35.18250000     -69.65910000
C      -43.19610000     -35.84130000     -69.15040000
C      -44.19480000     -33.71050000     -69.32730000
H      -43.00860000     -36.89820000     -69.35130000
C      -43.11220000     -33.47210000     -68.51180000
C      -44.87490000     -32.48460000     -69.74880000
C      -44.27880000     -31.33720000     -69.23720000
S      -42.23090000     -34.84570000     -67.97860000
S      -42.84360000     -31.74170000     -68.28240000
H      -44.58160000     -30.30260000     -69.29740000
