40
Properties=species:S:1:pos:R:3 #=T CELL(abcABC):=T 1.889726e+02=T 90.00000=T Traj:=T positionsangstrom=T Step:=T 0=T Bead:=T pbc="F F F"
C      -45.82910000     -31.05580000     -74.30820000
C      -47.07900000     -31.72140000     -73.81500000
C      -47.15010000     -33.10900000     -73.95120000
C      -46.03740000     -33.84080000     -74.48800000
C      -44.93820000     -33.14090000     -74.94310000
C      -44.82450000     -31.77050000     -74.85690000
H      -45.74460000     -29.91350000     -74.28110000
H      -47.98020000     -33.58790000     -73.39650000
H      -44.16510000     -33.75840000     -75.41000000
H      -43.91110000     -31.33210000     -75.22890000
C      -46.10090000     -35.34320000     -74.69030000
H      -45.25780000     -35.68730000     -75.22350000
H      -47.08440000     -35.55120000     -75.25580000
C      -48.15820000     -30.93940000     -73.09350000
H      -47.86700000     -29.90240000     -72.91610000
H      -49.01980000     -30.97980000     -73.71440000
S      -46.35520000     -36.19850000     -73.07000000
S      -48.68530000     -31.58360000     -71.44190000
C      -44.86270000     -35.63280000     -72.00630000
H      -43.86170000     -36.18390000     -72.32040000
H      -44.79090000     -34.53030000     -72.07070000
C      -47.09060000     -31.47800000     -70.55830000
H      -47.20650000     -31.43590000     -69.54580000
H      -46.46750000     -30.55850000     -70.91340000
C      -46.13970000     -32.67480000     -70.73790000
H      -46.68830000     -33.51090000     -70.55360000
H      -45.77050000     -32.59450000     -71.76120000
C      -45.16080000     -35.90050000     -70.52520000
H      -45.24660000     -36.98600000     -70.31410000
H      -46.09830000     -35.47920000     -70.12980000
C      -44.13630000     -35.21810000     -69.64540000
C      -43.08750000     -35.84360000     -69.02280000
C      -44.15080000     -33.80950000     -69.41520000
H      -42.87540000     -36.95630000     -69.11160000
C      -43.11660000     -33.42570000     -68.52510000
C      -44.96530000     -32.61900000     -69.81540000
C      -44.53250000     -31.48830000     -69.14270000
S      -42.14730000     -34.74950000     -68.04000000
S      -43.05930000     -31.73790000     -68.27530000
H      -44.89870000     -30.43950000     -69.16640000
