40
Properties=species:S:1:pos:R:3 #=T CELL(abcABC):=T 1.889726e+02=T 90.00000=T Traj:=T positionsangstrom=T Step:=T 0=T Bead:=T pbc="F F F"
C      -45.40630000     -31.66060000     -74.59860000
C      -46.70350000     -31.84990000     -74.04660000
C      -47.21140000     -33.17740000     -73.98410000
C      -46.46640000     -34.28000000     -74.35250000
C      -45.15810000     -34.11430000     -74.76150000
C      -44.61030000     -32.80760000     -74.87390000
H      -44.97800000     -30.67490000     -74.46600000
H      -48.16070000     -33.30180000     -73.53910000
H      -44.56740000     -35.01750000     -74.95950000
H      -43.58140000     -32.67550000     -75.22020000
C      -47.03690000     -35.68910000     -74.06560000
H      -46.39000000     -36.43300000     -74.54390000
H      -48.04330000     -35.73400000     -74.59630000
C      -47.54810000     -30.66370000     -73.50850000
H      -46.91650000     -29.75810000     -73.56760000
H      -48.47200000     -30.42170000     -74.09390000
S      -47.25700000     -36.10930000     -72.32300000
S      -48.11970000     -31.04330000     -71.83940000
C      -45.52200000     -35.66810000     -71.64330000
H      -44.83330000     -36.44340000     -72.05740000
H      -45.27670000     -34.71620000     -72.07620000
C      -46.56820000     -30.95440000     -70.94810000
H      -46.55510000     -30.14220000     -70.22460000
H      -45.84870000     -30.55890000     -71.63350000
C      -46.27500000     -32.33930000     -70.28290000
H      -47.12180000     -32.48140000     -69.61160000
H      -46.43930000     -33.15850000     -70.87520000
C      -45.56410000     -35.68650000     -70.06690000
H      -45.70020000     -36.70710000     -69.78020000
H      -46.43170000     -35.14900000     -69.71980000
C      -44.38460000     -35.08240000     -69.38770000
C      -43.37800000     -35.78520000     -68.88640000
C      -44.13480000     -33.62230000     -69.39530000
H      -43.20500000     -36.80890000     -68.97400000
C      -42.89030000     -33.40780000     -68.89960000
C      -44.86870000     -32.38670000     -69.68500000
C      -44.18630000     -31.32860000     -69.32850000
S      -42.05710000     -34.81240000     -68.22650000
S      -42.54090000     -31.71220000     -68.81080000
H      -44.48910000     -30.26220000     -69.35310000
