40
Properties=species:S:1:pos:R:3 #=T CELL(abcABC):=T 1.889726e+02=T 90.00000=T Traj:=T positionsangstrom=T Step:=T 0=T Bead:=T pbc="F F F"
C      -45.76540000     -31.39580000     -74.19390000
C      -46.95990000     -31.93720000     -73.79550000
C      -47.15410000     -33.33760000     -73.88600000
C      -46.18670000     -34.13900000     -74.41010000
C      -44.94620000     -33.53360000     -74.78140000
C      -44.70240000     -32.14860000     -74.62930000
H      -45.63710000     -30.32830000     -74.16310000
H      -48.17820000     -33.76980000     -73.62390000
H      -44.14000000     -34.17580000     -75.25100000
H      -43.76310000     -31.68740000     -74.83490000
C      -46.33740000     -35.59420000     -74.60620000
H      -45.48110000     -36.16850000     -75.04740000
H      -47.14160000     -35.99260000     -75.22420000
C      -48.21580000     -31.02570000     -73.39560000
H      -48.16900000     -29.97720000     -73.76640000
H      -49.11960000     -31.35510000     -73.77530000
S      -46.63430000     -36.46110000     -72.90980000
S      -48.43960000     -30.98500000     -71.45490000
C      -45.29180000     -35.68320000     -71.96700000
H      -44.32650000     -36.24010000     -72.13650000
H      -45.12450000     -34.71530000     -72.38210000
C      -46.74560000     -30.95620000     -70.78030000
H      -46.81070000     -30.39320000     -69.80050000
H      -46.14030000     -30.23060000     -71.42430000
C      -46.11490000     -32.30800000     -70.57280000
H      -46.88800000     -32.90950000     -70.10820000
H      -45.91820000     -32.88120000     -71.47870000
C      -45.57640000     -35.64080000     -70.45540000
H      -45.84380000     -36.66230000     -70.08030000
H      -46.42850000     -35.06690000     -70.21040000
C      -44.42410000     -35.08620000     -69.68490000
C      -43.36720000     -35.80850000     -69.17520000
C      -44.20770000     -33.66660000     -69.42300000
H      -43.23920000     -36.96580000     -69.16700000
C      -42.94970000     -33.43120000     -68.72600000
C      -44.80850000     -32.39570000     -69.71970000
C      -44.22070000     -31.31640000     -69.10220000
S      -42.14110000     -34.88960000     -68.29480000
S      -42.73950000     -31.77180000     -68.23770000
H      -44.56940000     -30.33570000     -69.41670000
