40
Properties=species:S:1:pos:R:3 #=T CELL(abcABC):=T 1.889726e+02=T 90.00000=T Traj:=T positionsangstrom=T Step:=T 0=T Bead:=T pbc="F F F"
C      -45.41070000     -31.56000000     -74.55740000
C      -46.74910000     -31.80780000     -74.16780000
C      -47.21740000     -33.11540000     -74.07220000
C      -46.40510000     -34.19730000     -74.41360000
C      -45.13690000     -34.00610000     -74.83240000
C      -44.63600000     -32.68840000     -74.97780000
H      -45.14580000     -30.58630000     -74.69000000
H      -48.26700000     -33.23850000     -73.88690000
H      -44.50490000     -34.85470000     -75.14550000
H      -43.58130000     -32.53140000     -75.34050000
C      -46.92540000     -35.58760000     -74.21230000
H      -46.20730000     -36.30020000     -74.61530000
H      -47.98300000     -35.64420000     -74.58620000
C      -47.60330000     -30.64950000     -73.63800000
H      -47.10490000     -29.73660000     -73.65110000
H      -48.62030000     -30.53050000     -74.14550000
S      -47.15410000     -36.17540000     -72.34410000
S      -48.16690000     -30.99390000     -71.86430000
C      -45.58380000     -35.49190000     -71.51290000
H      -44.65180000     -35.91010000     -72.03370000
H      -45.42180000     -34.42960000     -71.74400000
C      -46.54260000     -31.14370000     -70.89800000
H      -46.47740000     -30.30850000     -70.08600000
H      -45.88030000     -31.14180000     -71.75460000
C      -46.42220000     -32.42510000     -70.05940000
H      -47.10680000     -32.31020000     -69.17380000
H      -46.71380000     -33.23820000     -70.64330000
C      -45.54980000     -35.78570000     -69.99200000
H      -45.44450000     -36.86410000     -69.76850000
H      -46.53390000     -35.33360000     -69.58980000
C      -44.42840000     -35.10810000     -69.31800000
C      -43.36130000     -35.80880000     -68.85710000
C      -44.19900000     -33.66740000     -69.28010000
H      -43.29520000     -36.88330000     -68.80980000
C      -42.87790000     -33.39230000     -68.73620000
C      -44.91330000     -32.48630000     -69.63760000
C      -44.14440000     -31.38530000     -69.33330000
S      -41.97310000     -34.87300000     -68.35590000
S      -42.59730000     -31.71870000     -68.72180000
H      -44.41480000     -30.28550000     -69.49100000
