40
Properties=species:S:1:pos:R:3 #=T CELL(abcABC):=T 1.889726e+02=T 90.00000=T Traj:=T positionsangstrom=T Step:=T 0=T Bead:=T pbc="F F F"
C      -45.43800000     -32.54640000     -74.68190000
C      -46.78980000     -32.28490000     -74.23700000
C      -47.61170000     -33.35920000     -73.91300000
C      -47.17140000     -34.69070000     -73.90270000
C      -45.88920000     -34.92580000     -74.44250000
C      -45.06230000     -33.88660000     -74.83570000
H      -44.85510000     -31.71240000     -74.85020000
H      -48.58750000     -33.16810000     -73.52110000
H      -45.52980000     -36.01580000     -74.50260000
H      -44.04660000     -34.10880000     -75.03330000
C      -47.93720000     -35.84160000     -73.29820000
H      -47.43070000     -36.76630000     -73.45570000
H      -48.97940000     -35.93530000     -73.61270000
C      -47.19880000     -30.85460000     -74.17460000
H      -46.57450000     -30.32480000     -74.89560000
H      -48.28240000     -30.70810000     -74.34260000
S      -48.01360000     -35.74060000     -71.47900000
S      -47.09050000     -30.02450000     -72.48170000
C      -46.27390000     -35.47530000     -70.84530000
H      -45.80190000     -36.39300000     -70.86700000
H      -45.77850000     -34.82290000     -71.57410000
C      -45.40100000     -30.65830000     -71.80430000
H      -45.12250000     -29.91050000     -71.04270000
H      -44.66140000     -30.69370000     -72.64200000
C      -45.45940000     -31.98110000     -71.07800000
H      -46.25930000     -32.00280000     -70.28320000
H      -45.61370000     -32.80960000     -71.78520000
C      -46.28670000     -34.87860000     -69.46490000
H      -46.73460000     -35.63410000     -68.72290000
H      -46.98550000     -34.02310000     -69.44650000
C      -44.90910000     -34.56160000     -68.94910000
C      -44.28070000     -35.33180000     -67.99730000
C      -44.01400000     -33.50000000     -69.47830000
H      -44.68700000     -36.09760000     -67.39870000
C      -42.71040000     -33.56380000     -68.91440000
C      -44.11030000     -32.34610000     -70.41650000
C      -42.94120000     -31.69860000     -70.52980000
S      -42.61160000     -34.75640000     -67.63150000
S      -41.61800000     -32.40280000     -69.52030000
H      -42.74150000     -30.85690000     -71.13190000
