40
Properties=species:S:1:pos:R:3 #=T CELL(abcABC):=T 1.889726e+02=T 90.00000=T Traj:=T positionsangstrom=T Step:=T 0=T Bead:=T pbc="F F F"
C      -45.20260000     -32.79950000     -74.64960000
C      -46.50980000     -32.35330000     -74.25660000
C      -47.45840000     -33.30800000     -73.86620000
C      -47.19570000     -34.64970000     -73.81300000
C      -45.87070000     -35.07910000     -74.22480000
C      -44.90590000     -34.16840000     -74.60130000
H      -44.45840000     -32.10870000     -74.98250000
H      -48.40540000     -32.95840000     -73.51920000
H      -45.80610000     -36.19580000     -74.27160000
H      -43.83550000     -34.49630000     -74.76170000
C      -48.23250000     -35.55790000     -73.26650000
H      -48.24040000     -36.59530000     -73.62640000
H      -49.25150000     -35.25130000     -73.62860000
C      -46.87870000     -30.92340000     -74.29190000
H      -46.13890000     -30.34720000     -74.92440000
H      -47.84970000     -30.77340000     -74.71430000
S      -48.23230000     -35.56600000     -71.43580000
S      -46.87590000     -30.11930000     -72.58260000
C      -46.47500000     -35.36000000     -70.98940000
H      -45.94610000     -36.34260000     -71.22710000
H      -45.96290000     -34.51990000     -71.57440000
C      -45.39360000     -30.67430000     -71.79900000
H      -45.15720000     -29.85630000     -71.15190000
H      -44.58740000     -30.63890000     -72.52060000
C      -45.44380000     -32.00220000     -71.07140000
H      -46.22590000     -31.94700000     -70.33070000
H      -45.76240000     -32.71720000     -71.83290000
C      -46.29220000     -35.00430000     -69.52170000
H      -46.65440000     -35.80660000     -68.87590000
H      -46.91890000     -34.12880000     -69.26830000
C      -44.87200000     -34.62730000     -69.03090000
C      -44.18460000     -35.37550000     -68.05150000
C      -44.08370000     -33.52140000     -69.51060000
H      -44.53840000     -36.17640000     -67.45870000
C      -42.82840000     -33.51990000     -68.88960000
C      -44.19990000     -32.44940000     -70.42360000
C      -43.09700000     -31.70230000     -70.48470000
S      -42.57450000     -34.76780000     -67.69890000
S      -41.78640000     -32.21810000     -69.45440000
H      -42.91770000     -30.94040000     -71.19460000
