40
Properties=species:S:1:pos:R:3 #=T CELL(abcABC):=T 1.889726e+02=T 90.00000=T Traj:=T positionsangstrom=T Step:=T 0=T Bead:=T pbc="F F F"
C      -48.06200000     -35.17150000     -69.32740000
C      -48.31270000     -34.35050000     -70.42250000
C      -47.98190000     -33.01250000     -70.51060000
C      -47.57020000     -32.33250000     -69.35610000
C      -47.47850000     -33.07280000     -68.18260000
C      -47.71310000     -34.51530000     -68.16040000
H      -48.31900000     -36.22250000     -69.53450000
H      -48.23040000     -32.46270000     -71.45010000
H      -47.18900000     -32.51940000     -67.28040000
H      -47.84380000     -35.08290000     -67.21630000
C      -47.24350000     -30.84240000     -69.24330000
H      -47.53290000     -30.44030000     -68.25030000
H      -47.92680000     -30.24410000     -69.87550000
C      -48.83910000     -34.98510000     -71.73920000
H      -49.29860000     -35.90180000     -71.52300000
H      -49.48960000     -34.33880000     -72.28510000
S      -45.51510000     -30.32040000     -69.63530000
S      -47.40530000     -35.25160000     -73.00970000
C      -44.52910000     -31.62120000     -68.68450000
H      -43.61840000     -31.12950000     -68.38770000
H      -45.10580000     -31.91670000     -67.73270000
C      -46.30040000     -36.47280000     -72.22700000
H      -45.95120000     -37.17000000     -72.94460000
H      -46.87130000     -37.04610000     -71.47420000
C      -45.12840000     -35.74390000     -71.57970000
H      -45.50500000     -35.20890000     -70.64720000
H      -44.44100000     -36.47190000     -71.14920000
C      -44.25470000     -32.87000000     -69.53710000
H      -45.24180000     -33.31400000     -69.67530000
H      -43.83930000     -33.61340000     -68.89280000
C      -43.45350000     -32.68310000     -70.87090000
C      -42.54510000     -31.66860000     -71.06960000
C      -43.54920000     -33.57320000     -72.08250000
H      -42.26780000     -30.95430000     -70.39220000
C      -42.75060000     -33.09970000     -73.10600000
C      -44.25090000     -34.84370000     -72.47200000
C      -43.84870000     -35.22280000     -73.74450000
S      -41.88330000     -31.66110000     -72.75620000
S      -42.77860000     -34.04990000     -74.58420000
H      -44.15690000     -36.11330000     -74.15370000
