40
Properties=species:S:1:pos:R:3 #=T CELL(abcABC):=T 1.889726e+02=T 90.00000=T Traj:=T positionsangstrom=T Step:=T 0=T Bead:=T pbc="F F F"
C      -45.85480000     -32.15220000     -74.94500000
C      -46.99090000     -32.18680000     -74.13980000
C      -47.34750000     -33.47190000     -73.61840000
C      -46.61650000     -34.57270000     -73.95580000
C      -45.50080000     -34.54040000     -74.79830000
C      -45.15290000     -33.27800000     -75.25720000
H      -45.59150000     -31.15190000     -75.48620000
H      -48.15860000     -33.44360000     -72.94250000
H      -45.03800000     -35.46990000     -75.11980000
H      -44.22080000     -33.10870000     -75.82620000
C      -47.11970000     -35.93150000     -73.42690000
H      -46.27900000     -36.64240000     -73.46260000
H      -48.01500000     -36.35870000     -74.00120000
C      -47.81630000     -31.00440000     -73.78090000
H      -47.66150000     -30.16710000     -74.45920000
H      -48.85610000     -31.35270000     -73.84260000
S      -47.75960000     -35.86890000     -71.74430000
S      -47.47190000     -30.26420000     -72.08110000
C      -46.17800000     -35.82170000     -70.76760000
H      -45.98630000     -36.81500000     -70.57720000
H      -45.36880000     -35.36360000     -71.34980000
C      -45.66510000     -30.50120000     -71.47440000
H      -45.59730000     -29.74670000     -70.66170000
H      -44.87830000     -30.29290000     -72.17790000
C      -45.48700000     -32.00090000     -71.05830000
H      -46.27350000     -32.12570000     -70.34320000
H      -45.74820000     -32.69610000     -71.85540000
C      -46.26740000     -35.00520000     -69.50310000
H      -46.85300000     -35.47990000     -68.66630000
H      -46.81960000     -34.08280000     -69.65030000
C      -44.85440000     -34.63320000     -68.98310000
C      -44.14800000     -35.40970000     -68.10730000
C      -44.02410000     -33.56990000     -69.47880000
H      -44.49220000     -36.34480000     -67.57110000
C      -42.72460000     -33.56290000     -68.97750000
C      -44.23180000     -32.42770000     -70.36330000
C      -43.11360000     -31.62230000     -70.40390000
S      -42.43410000     -34.87680000     -67.85030000
S      -41.80780000     -32.19490000     -69.41560000
H      -43.05340000     -30.66930000     -70.87950000
