40
Properties=species:S:1:pos:R:3 #=T CELL(abcABC):=T 1.889726e+02=T 90.00000=T Traj:=T positionsangstrom=T Step:=T 0=T Bead:=T pbc="F F F"
C      -45.44000000     -31.97220000     -74.51440000
C      -46.74250000     -32.00560000     -74.04610000
C      -47.45090000     -33.26900000     -73.92180000
C      -46.79980000     -34.48890000     -74.20420000
C      -45.46800000     -34.43290000     -74.75970000
C      -44.82760000     -33.17330000     -74.84420000
H      -44.94170000     -31.03350000     -74.74650000
H      -48.46950000     -33.34900000     -73.53470000
H      -44.91240000     -35.24980000     -75.11830000
H      -43.78930000     -33.19510000     -75.30680000
C      -47.41340000     -35.81610000     -73.89330000
H      -46.85470000     -36.65270000     -74.43800000
H      -48.45010000     -35.91260000     -74.10620000
C      -47.51920000     -30.76150000     -73.67180000
H      -46.85460000     -29.89370000     -73.96970000
H      -48.42810000     -30.65620000     -74.19200000
S      -47.22950000     -36.29800000     -72.10900000
S      -47.99950000     -30.68830000     -71.88990000
C      -45.62640000     -35.64580000     -71.40870000
H      -44.80120000     -36.36440000     -71.62460000
H      -45.43430000     -34.70610000     -71.91010000
C      -46.28950000     -30.71040000     -71.11880000
H      -46.14730000     -29.87370000     -70.40190000
H      -45.59280000     -30.57640000     -71.96020000
C      -46.00460000     -32.01200000     -70.35310000
H      -46.61180000     -32.23760000     -69.43490000
H      -46.21860000     -32.89880000     -70.98020000
C      -45.88770000     -35.44740000     -69.92250000
H      -46.09200000     -36.38100000     -69.37150000
H      -46.83770000     -34.74400000     -69.71250000
C      -44.62020000     -34.82650000     -69.23020000
C      -43.71140000     -35.71300000     -68.68870000
C      -44.13200000     -33.47290000     -69.35010000
H      -43.90750000     -36.73970000     -68.46540000
C      -42.86760000     -33.39690000     -68.84210000
C      -44.55800000     -32.16100000     -69.91020000
C      -43.61040000     -31.20230000     -69.75710000
S      -42.22560000     -34.87850000     -68.18190000
S      -42.09230000     -31.80670000     -69.12420000
H      -43.68820000     -30.11380000     -69.98480000
