40
Properties=species:S:1:pos:R:3 #=T CELL(abcABC):=T 1.889726e+02=T 90.00000=T Traj:=T positionsangstrom=T Step:=T 0=T Bead:=T pbc="F F F"
C      -44.91190000     -33.48640000     -74.69100000
C      -45.91510000     -32.69310000     -74.10490000
C      -47.09590000     -33.31280000     -73.66480000
C      -47.33220000     -34.68560000     -73.81530000
C      -46.29330000     -35.43120000     -74.41410000
C      -45.07650000     -34.84280000     -74.70920000
H      -44.05850000     -32.98750000     -75.02450000
H      -47.89260000     -32.70850000     -73.25660000
H      -46.38230000     -36.55990000     -74.46780000
H      -44.25340000     -35.40240000     -75.16000000
C      -48.51310000     -35.34440000     -73.23850000
H      -48.47140000     -36.37360000     -73.52650000
H      -49.42680000     -34.80550000     -73.60850000
C      -45.97920000     -31.18710000     -74.45490000
H      -45.12910000     -30.77630000     -75.02430000
H      -46.83290000     -31.04830000     -75.08850000
S      -48.62700000     -35.03690000     -71.38140000
S      -46.56780000     -30.22890000     -72.91280000
C      -46.88720000     -35.43670000     -70.71910000
H      -46.80730000     -36.52840000     -70.37290000
H      -46.21190000     -35.24930000     -71.46720000
C      -45.20000000     -30.54530000     -71.77510000
H      -44.79060000     -29.63820000     -71.29980000
H      -44.39700000     -30.99060000     -72.39590000
C      -45.50890000     -31.59790000     -70.69500000
H      -46.26150000     -31.30110000     -69.97950000
H      -46.00950000     -32.39370000     -71.24800000
C      -46.50120000     -34.52640000     -69.51670000
H      -46.98650000     -34.98710000     -68.56620000
H      -46.86430000     -33.54370000     -69.71360000
C      -44.95500000     -34.49320000     -69.23670000
C      -44.32440000     -35.52320000     -68.60420000
C      -44.15880000     -33.31920000     -69.36450000
H      -44.77510000     -36.47470000     -68.42430000
C      -42.84630000     -33.53810000     -68.91040000
C      -44.20430000     -32.03160000     -70.01690000
C      -43.03300000     -31.34330000     -69.94590000
S      -42.66140000     -35.11760000     -68.14690000
S      -41.76760000     -32.17680000     -69.07860000
H      -42.81050000     -30.43610000     -70.47560000
