40
Properties=species:S:1:pos:R:3 #=T CELL(abcABC):=T 1.889726e+02=T 90.00000=T Traj:=T positionsangstrom=T Step:=T 0=T Bead:=T pbc="F F F"
C      -42.15720000     -33.20880000     -69.67930000
C      -42.24410000     -34.53040000     -70.18940000
C      -43.18060000     -35.38880000     -69.55990000
C      -44.06310000     -34.99230000     -68.50450000
C      -43.93440000     -33.69380000     -68.04730000
C      -42.86130000     -32.85440000     -68.53770000
H      -41.34560000     -32.50260000     -70.05240000
H      -43.48120000     -36.31040000     -70.04570000
H      -44.55830000     -33.37740000     -67.19220000
H      -42.68050000     -31.84600000     -68.16820000
C      -45.16060000     -35.92570000     -67.92950000
H      -45.59080000     -35.35910000     -67.07550000
H      -44.75410000     -36.90250000     -67.62800000
C      -41.44840000     -34.94230000     -71.42090000
H      -40.75730000     -34.12720000     -71.58610000
H      -40.90870000     -35.85870000     -71.13730000
S      -46.48060000     -36.16690000     -69.21770000
S      -42.58260000     -35.28510000     -72.91870000
C      -46.85650000     -34.41530000     -69.89480000
H      -47.56890000     -33.93300000     -69.24730000
H      -45.84070000     -33.90990000     -69.97370000
C      -43.32820000     -33.64960000     -73.29150000
H      -43.77290000     -33.66690000     -74.24980000
H      -42.59770000     -32.82450000     -73.37630000
C      -44.37460000     -33.29020000     -72.22670000
H      -44.88450000     -34.13260000     -71.89310000
H      -43.78980000     -32.89390000     -71.40130000
C      -47.44430000     -34.48770000     -71.34170000
H      -48.37250000     -35.08500000     -71.18190000
H      -46.82770000     -35.05470000     -72.04370000
C      -47.75990000     -33.09490000     -71.87130000
C      -49.04880000     -32.59930000     -71.98410000
C      -46.77960000     -32.08640000     -72.34730000
H      -50.02640000     -33.02830000     -71.72800000
C      -47.36450000     -30.93180000     -72.84480000
C      -45.32890000     -32.19360000     -72.65280000
C      -44.89480000     -31.06960000     -73.31730000
S      -49.11210000     -30.91490000     -72.66500000
S      -46.22320000     -29.88600000     -73.66100000
H      -43.90050000     -30.97340000     -73.72260000
