40
Properties=species:S:1:pos:R:3 #=T CELL(abcABC):=T 1.889726e+02=T 90.00000=T Traj:=T positionsangstrom=T Step:=T 0=T Bead:=T pbc="F F F"
C      -44.85650000     -33.44030000     -74.77900000
C      -45.85450000     -32.56650000     -74.39750000
C      -47.01030000     -33.15150000     -73.86490000
C      -47.25170000     -34.52250000     -73.71650000
C      -46.20930000     -35.33050000     -74.11610000
C      -45.02350000     -34.82370000     -74.63400000
H      -43.92190000     -33.02530000     -75.17810000
H      -47.82970000     -32.48820000     -73.65620000
H      -46.23870000     -36.42570000     -74.10750000
H      -44.33610000     -35.52520000     -75.08410000
C      -48.57420000     -35.04190000     -73.24750000
H      -48.60800000     -36.14920000     -73.24130000
H      -49.42380000     -34.54440000     -73.79030000
C      -45.70650000     -31.04490000     -74.53800000
H      -44.69620000     -30.96220000     -74.97660000
H      -46.42040000     -30.67760000     -75.30920000
S      -48.72710000     -34.64500000     -71.39550000
S      -46.04190000     -29.93320000     -73.08520000
C      -46.95840000     -35.03140000     -70.84490000
H      -46.78570000     -36.09790000     -70.77880000
H      -46.16090000     -34.75740000     -71.55590000
C      -44.84800000     -30.67350000     -71.95910000
H      -44.21430000     -29.91130000     -71.54260000
H      -44.15370000     -31.25650000     -72.57500000
C      -45.31480000     -31.60180000     -70.85890000
H      -45.87270000     -31.01500000     -70.10600000
H      -46.06450000     -32.39570000     -71.17890000
C      -46.72810000     -34.30910000     -69.54530000
H      -47.44550000     -34.65110000     -68.79370000
H      -46.93040000     -33.26530000     -69.70290000
C      -45.27640000     -34.46640000     -68.96920000
C      -44.84650000     -35.44140000     -68.12750000
C      -44.23800000     -33.51990000     -69.30830000
H      -45.39440000     -36.20470000     -67.55860000
C      -43.02710000     -33.85890000     -68.74120000
C      -44.16660000     -32.38390000     -70.18110000
C      -42.87550000     -31.83310000     -70.23020000
S      -43.11950000     -35.31810000     -67.71230000
S      -41.77150000     -32.83390000     -69.23310000
H      -42.36320000     -30.98080000     -70.76710000
