40
Properties=species:S:1:pos:R:3 #=T CELL(abcABC):=T 1.889726e+02=T 90.00000=T Traj:=T positionsangstrom=T Step:=T 0=T Bead:=T pbc="F F F"
C      -41.82560000     -32.74680000     -69.42250000
C      -42.14430000     -33.96050000     -70.01530000
C      -43.24210000     -34.71230000     -69.45010000
C      -43.90520000     -34.19320000     -68.33710000
C      -43.55910000     -32.99220000     -67.75800000
C      -42.53990000     -32.24340000     -68.31240000
H      -40.95570000     -32.15210000     -69.77540000
H      -43.55260000     -35.66720000     -69.91610000
H      -44.20530000     -32.64460000     -66.94860000
H      -42.24210000     -31.32380000     -67.85970000
C      -44.92120000     -35.03810000     -67.64500000
H      -45.39040000     -34.55310000     -66.75970000
H      -44.48960000     -35.93610000     -67.18570000
C      -41.37060000     -34.51640000     -71.21590000
H      -40.68440000     -33.84440000     -71.71740000
H      -40.66520000     -35.34560000     -70.71520000
S      -46.24570000     -35.67870000     -68.65400000
S      -42.43990000     -35.40840000     -72.39080000
C      -46.95180000     -34.19000000     -69.50920000
H      -47.68870000     -33.64690000     -68.79250000
H      -46.16470000     -33.41630000     -69.60370000
C      -43.35820000     -34.07470000     -73.37650000
H      -43.38370000     -34.43300000     -74.42860000
H      -42.83240000     -33.09530000     -73.33200000
C      -44.71790000     -33.92230000     -72.70720000
H      -45.20530000     -34.92250000     -72.79700000
H      -44.40540000     -33.58920000     -71.67810000
C      -47.54190000     -34.42760000     -70.94550000
H      -48.48610000     -34.95640000     -70.87300000
H      -46.87060000     -35.04020000     -71.51840000
C      -47.73360000     -33.10660000     -71.70590000
C      -48.90050000     -32.40100000     -71.52540000
C      -46.95340000     -32.55020000     -72.81900000
H      -49.73620000     -32.67400000     -70.82520000
C      -47.53880000     -31.45430000     -73.41950000
C      -45.68410000     -32.88150000     -73.34200000
C      -45.43280000     -32.14140000     -74.44170000
S      -49.04260000     -31.02940000     -72.66020000
S      -46.63920000     -30.88370000     -74.70280000
H      -44.60330000     -32.24630000     -75.04490000
