40
Properties=species:S:1:pos:R:3 #=T CELL(abcABC):=T 1.889726e+02=T 90.00000=T Traj:=T positionsangstrom=T Step:=T 0=T Bead:=T pbc="F F F"
C      -41.98640000     -33.13950000     -69.59900000
C      -42.12020000     -34.38790000     -70.16680000
C      -43.16000000     -35.23700000     -69.69540000
C      -44.03560000     -34.89580000     -68.61280000
C      -43.72220000     -33.66060000     -68.02950000
C      -42.82210000     -32.78100000     -68.53250000
H      -41.19320000     -32.48030000     -69.99210000
H      -43.12420000     -36.28760000     -70.00960000
H      -44.39340000     -33.36120000     -67.24950000
H      -42.63040000     -31.84280000     -67.98800000
C      -45.07130000     -35.87710000     -68.06080000
H      -45.40920000     -35.69230000     -67.08330000
H      -44.71280000     -36.92950000     -68.00480000
C      -41.30770000     -34.76410000     -71.39620000
H      -40.68270000     -33.96530000     -71.76570000
H      -40.57060000     -35.62540000     -71.31370000
S      -46.58480000     -35.89450000     -69.23350000
S      -42.45360000     -35.36790000     -72.68230000
C      -46.90590000     -34.27700000     -69.94560000
H      -47.51160000     -33.57490000     -69.28310000
H      -45.91790000     -33.91610000     -70.01910000
C      -43.33430000     -33.85360000     -73.24010000
H      -43.55990000     -34.07940000     -74.29480000
H      -42.58660000     -33.00180000     -73.25110000
C      -44.58100000     -33.56880000     -72.46440000
H      -45.24610000     -34.48900000     -72.55040000
H      -44.32680000     -33.42650000     -71.36440000
C      -47.63130000     -34.49160000     -71.27830000
H      -48.62060000     -34.93240000     -71.12570000
H      -47.04540000     -35.15190000     -71.89470000
C      -47.82710000     -33.14110000     -71.93460000
C      -49.06260000     -32.49470000     -71.83020000
C      -46.82640000     -32.29310000     -72.51850000
H      -49.93100000     -32.99300000     -71.56360000
C      -47.39240000     -31.08890000     -72.86880000
C      -45.39970000     -32.35940000     -72.83960000
C      -45.04070000     -31.22730000     -73.53530000
S      -49.11060000     -30.93100000     -72.55030000
S      -46.25550000     -29.96410000     -73.63000000
H      -44.04240000     -30.88440000     -73.78330000
