40
Properties=species:S:1:pos:R:3 #=T CELL(abcABC):=T 1.889726e+02=T 90.00000=T Traj:=T positionsangstrom=T Step:=T 0=T Bead:=T pbc="F F F"
C      -42.04530000     -32.94310000     -69.48750000
C      -42.31860000     -34.21960000     -70.08050000
C      -43.28480000     -34.98620000     -69.49460000
C      -44.02920000     -34.55210000     -68.39350000
C      -43.63300000     -33.38470000     -67.76300000
C      -42.63150000     -32.57350000     -68.32180000
H      -41.31580000     -32.33140000     -69.98820000
H      -43.56440000     -35.87520000     -70.05830000
H      -44.19960000     -32.92090000     -66.96840000
H      -42.50670000     -31.58340000     -67.88720000
C      -45.22870000     -35.25650000     -67.83710000
H      -45.71580000     -34.44780000     -67.24990000
H      -44.89730000     -36.11290000     -67.21020000
C      -41.39710000     -34.74360000     -71.25040000
H      -40.61460000     -33.86130000     -71.43030000
H      -40.98230000     -35.70820000     -70.95560000
S      -46.41020000     -35.92770000     -69.07970000
S      -42.35750000     -35.30810000     -72.76440000
C      -46.92620000     -34.32450000     -69.80220000
H      -47.41280000     -33.72250000     -69.01010000
H      -45.91200000     -33.74980000     -70.03710000
C      -43.34580000     -33.86400000     -73.16300000
H      -43.18380000     -33.45710000     -74.23870000
H      -42.96830000     -32.99570000     -72.53820000
C      -44.83570000     -34.04410000     -72.89140000
H      -45.19840000     -34.83270000     -73.56950000
H      -44.90780000     -34.41540000     -71.82280000
C      -47.78860000     -34.43110000     -71.09560000
H      -48.76410000     -34.71510000     -70.78300000
H      -47.47730000     -35.20260000     -71.73550000
C      -47.89970000     -33.12100000     -71.83380000
C      -49.05140000     -32.37490000     -71.76460000
C      -46.84540000     -32.38980000     -72.50130000
H      -49.86300000     -32.60980000     -71.10270000
C      -47.26940000     -31.12630000     -72.89860000
C      -45.56660000     -32.73460000     -73.10070000
C      -45.08660000     -31.75150000     -73.90670000
S      -49.03970000     -30.86600000     -72.61120000
S      -46.16840000     -30.39750000     -74.04560000
H      -44.26080000     -31.76690000     -74.54250000
