40
Properties=species:S:1:pos:R:3 #=T CELL(abcABC):=T 1.889726e+02=T 90.00000=T Traj:=T positionsangstrom=T Step:=T 0=T Bead:=T pbc="F F F"
C      -41.90230000     -33.04970000     -69.48620000
C      -42.21690000     -34.23600000     -70.19950000
C      -43.24230000     -35.01780000     -69.64420000
C      -44.06440000     -34.68990000     -68.53280000
C      -43.80330000     -33.41320000     -67.99740000
C      -42.75000000     -32.65410000     -68.41710000
H      -41.18300000     -32.38610000     -69.84070000
H      -43.47790000     -35.91410000     -70.19860000
H      -44.34500000     -33.12520000     -67.10460000
H      -42.58140000     -31.70340000     -67.84930000
C      -45.10500000     -35.62290000     -68.04150000
H      -45.50580000     -35.35640000     -67.06200000
H      -44.55790000     -36.56190000     -67.94900000
C      -41.34130000     -34.80060000     -71.30350000
H      -40.67420000     -34.00560000     -71.66590000
H      -40.73500000     -35.64730000     -71.08560000
S      -46.49440000     -35.96770000     -69.16400000
S      -42.36450000     -35.35590000     -72.74080000
C      -46.84270000     -34.24690000     -69.86600000
H      -47.40240000     -33.57330000     -69.16860000
H      -45.95810000     -33.78210000     -69.99470000
C      -43.31780000     -33.81760000     -73.13050000
H      -43.35670000     -33.71300000     -74.21320000
H      -42.79130000     -33.02350000     -72.71650000
C      -44.78220000     -33.92560000     -72.73610000
H      -45.23980000     -34.78630000     -73.21200000
H      -44.93380000     -34.25240000     -71.71730000
C      -47.61770000     -34.45430000     -71.14680000
H      -48.60340000     -34.82170000     -70.75070000
H      -47.12710000     -35.22350000     -71.81270000
C      -47.92260000     -33.13530000     -71.88980000
C      -49.09400000     -32.41360000     -71.69710000
C      -46.98450000     -32.44990000     -72.75230000
H      -49.93620000     -32.75520000     -71.20270000
C      -47.44250000     -31.17460000     -73.06400000
C      -45.53020000     -32.62380000     -72.98260000
C      -44.94380000     -31.49510000     -73.47310000
S      -49.05900000     -30.81350000     -72.55100000
S      -46.20710000     -30.16330000     -73.74890000
H      -43.92340000     -31.23690000     -73.78060000
