40
Properties=species:S:1:pos:R:3 #=T CELL(abcABC):=T 1.889726e+02=T 90.00000=T Traj:=T positionsangstrom=T Step:=T 0=T Bead:=T pbc="F F F"
C      -41.73830000     -32.39040000     -69.83090000
C      -41.93830000     -33.74150000     -70.25260000
C      -42.89950000     -34.58130000     -69.65400000
C      -43.49080000     -34.09960000     -68.47050000
C      -43.21860000     -32.80970000     -67.95010000
C      -42.36280000     -31.92520000     -68.68270000
H      -40.92490000     -31.72560000     -70.30860000
H      -43.27490000     -35.45860000     -70.18730000
H      -43.70290000     -32.49390000     -67.02750000
H      -42.16550000     -30.91160000     -68.34510000
C      -44.41790000     -34.93130000     -67.64880000
H      -44.64620000     -34.48140000     -66.67530000
H      -44.13700000     -35.93260000     -67.44520000
C      -41.31950000     -34.27750000     -71.41810000
H      -40.94920000     -33.41260000     -72.02560000
H      -40.39580000     -34.83570000     -71.15440000
S      -46.10110000     -35.31680000     -68.41850000
S      -42.35940000     -35.44790000     -72.46240000
C      -46.62410000     -33.85830000     -69.43330000
H      -46.88410000     -33.08200000     -68.75090000
H      -45.68490000     -33.36560000     -69.86310000
C      -43.66990000     -34.49530000     -73.37090000
H      -43.96650000     -35.06920000     -74.20390000
H      -43.22110000     -33.55850000     -73.82500000
C      -44.86300000     -34.12290000     -72.49230000
H      -45.40270000     -35.07740000     -72.22000000
H      -44.47690000     -33.54620000     -71.58980000
C      -47.72040000     -34.22090000     -70.45870000
H      -48.64660000     -34.51980000     -70.03920000
H      -47.35110000     -35.08080000     -70.96870000
C      -47.94710000     -33.05040000     -71.40760000
C      -49.13740000     -32.36240000     -71.43580000
C      -47.10640000     -32.69540000     -72.51440000
H      -49.95360000     -32.65880000     -70.85140000
C      -47.74920000     -31.74730000     -73.32710000
C      -45.82220000     -33.19200000     -73.16540000
C      -45.62340000     -32.48770000     -74.30480000
S      -49.33030000     -31.17890000     -72.80720000
S      -46.85800000     -31.31790000     -74.74550000
H      -44.83200000     -32.67630000     -75.02500000
