40
Properties=species:S:1:pos:R:3 #=T CELL(abcABC):=T 1.889726e+02=T 90.00000=T Traj:=T positionsangstrom=T Step:=T 0=T Bead:=T pbc="F F F"
C      -41.86000000     -32.34340000     -71.04050000
C      -42.00850000     -33.66480000     -70.63150000
C      -42.74160000     -34.11190000     -69.51320000
C      -43.48190000     -33.14760000     -68.81340000
C      -43.43110000     -31.80000000     -69.21090000
C      -42.54590000     -31.41170000     -70.25810000
H      -41.20060000     -32.05690000     -71.78880000
H      -42.80730000     -35.16560000     -69.35410000
H      -44.04370000     -30.94360000     -68.80810000
H      -42.54740000     -30.42480000     -70.53820000
C      -44.20030000     -33.52240000     -67.47980000
H      -44.35150000     -32.66580000     -66.81990000
H      -43.71230000     -34.24250000     -66.75030000
C      -41.28030000     -34.74630000     -71.43010000
H      -40.37590000     -34.25910000     -71.91970000
H      -40.82030000     -35.50340000     -70.78920000
S      -45.82380000     -34.35040000     -67.81530000
S      -42.33620000     -35.70920000     -72.72810000
C      -46.50730000     -33.41100000     -69.20370000
H      -46.92190000     -32.43850000     -68.98400000
H      -45.61350000     -33.07600000     -69.76950000
C      -43.59550000     -34.53150000     -73.24090000
H      -43.77210000     -34.82860000     -74.30990000
H      -43.12460000     -33.58890000     -73.32990000
C      -44.84770000     -34.37290000     -72.34360000
H      -45.40550000     -35.27500000     -72.08310000
H      -44.52740000     -33.93800000     -71.40510000
C      -47.40290000     -34.34710000     -70.03410000
H      -48.20110000     -34.78380000     -69.39400000
H      -46.78110000     -35.27330000     -70.31370000
C      -47.93950000     -33.55440000     -71.14510000
C      -49.15130000     -33.04530000     -71.14840000
C      -47.17190000     -33.15940000     -72.30300000
H      -49.90930000     -33.04420000     -70.34350000
C      -47.91470000     -32.40320000     -73.12520000
C      -45.86820000     -33.43510000     -72.95140000
C      -45.72640000     -32.78720000     -74.16200000
S      -49.38610000     -31.94880000     -72.45460000
S      -47.14430000     -31.81470000     -74.57400000
H      -44.87500000     -32.73780000     -74.79820000
