40
Properties=species:S:1:pos:R:3 #=T CELL(abcABC):=T 1.889726e+02=T 90.00000=T Traj:=T positionsangstrom=T Step:=T 0=T Bead:=T pbc="F F F"
C      -43.74660000     -33.43910000     -67.60750000
C      -43.35240000     -33.97630000     -68.89940000
C      -42.72140000     -33.10410000     -69.79570000
C      -42.59100000     -31.74780000     -69.59200000
C      -43.03160000     -31.27330000     -68.35210000
C      -43.52010000     -32.14170000     -67.36060000
H      -44.08900000     -34.13020000     -66.85600000
H      -42.45860000     -33.49170000     -70.76790000
H      -42.84120000     -30.21760000     -68.09150000
H      -43.74400000     -31.75940000     -66.40530000
C      -42.23960000     -30.81050000     -70.72050000
H      -41.21610000     -30.99920000     -71.09220000
H      -42.10000000     -29.82360000     -70.18640000
C      -43.52570000     -35.45150000     -69.14720000
H      -42.64600000     -35.88810000     -69.62760000
H      -43.76310000     -36.08810000     -68.30660000
S      -43.47200000     -30.57500000     -72.06480000
S      -44.84340000     -35.80380000     -70.42790000
C      -45.12960000     -30.36850000     -71.37290000
H      -45.07160000     -29.71730000     -70.51110000
H      -45.74580000     -30.03670000     -72.16180000
C      -46.42960000     -35.64790000     -69.37370000
H      -46.28540000     -35.45800000     -68.30990000
H      -47.02150000     -36.62080000     -69.63940000
C      -47.33830000     -34.57460000     -69.97700000
H      -48.35330000     -34.45500000     -69.46640000
H      -46.92850000     -33.58660000     -69.74830000
C      -45.82640000     -31.67930000     -71.10210000
H      -46.80120000     -31.39420000     -70.69510000
H      -45.18420000     -32.39380000     -70.53490000
C      -46.27230000     -32.45410000     -72.37750000
C      -46.04940000     -32.00070000     -73.67710000
C      -46.92690000     -33.76340000     -72.43190000
H      -45.78480000     -30.94330000     -73.92150000
C      -47.18060000     -34.23480000     -73.74890000
C      -47.46750000     -34.70180000     -71.48690000
C      -48.00790000     -35.81030000     -72.07300000
S      -46.66420000     -33.02570000     -74.97940000
S      -48.03690000     -35.72960000     -73.87720000
H      -48.32740000     -36.70030000     -71.52580000
