40
Properties=species:S:1:pos:R:3 #=T CELL(abcABC):=T 1.889726e+02=T 90.00000=T Traj:=T positionsangstrom=T Step:=T 0=T Bead:=T pbc="F F F"
C      -41.81640000     -32.46070000     -70.55000000
C      -42.09670000     -33.88060000     -70.51060000
C      -42.90430000     -34.43380000     -69.50310000
C      -43.38290000     -33.52850000     -68.50400000
C      -43.12520000     -32.14650000     -68.53110000
C      -42.30760000     -31.62820000     -69.52470000
H      -41.08780000     -32.17550000     -71.30800000
H      -43.26080000     -35.44810000     -69.52920000
H      -43.57910000     -31.57130000     -67.75420000
H      -42.06130000     -30.49010000     -69.56200000
C      -44.28140000     -34.06320000     -67.47610000
H      -44.79550000     -33.35210000     -66.89220000
H      -43.83790000     -34.73960000     -66.70390000
C      -41.46190000     -34.75160000     -71.62560000
H      -40.97120000     -34.10290000     -72.36890000
H      -40.67450000     -35.27650000     -71.28010000
S      -45.73210000     -34.95400000     -68.19550000
S      -42.61700000     -35.85740000     -72.49130000
C      -46.34100000     -33.70190000     -69.40000000
H      -46.69920000     -32.86410000     -68.82830000
H      -45.53020000     -33.18140000     -69.81980000
C      -43.67270000     -34.44460000     -73.26160000
H      -44.05950000     -34.68140000     -74.25010000
H      -43.09470000     -33.59690000     -73.48720000
C      -44.87870000     -34.09150000     -72.37010000
H      -45.44340000     -35.03430000     -72.19620000
H      -44.44270000     -33.75250000     -71.45350000
C      -47.39520000     -34.24970000     -70.34600000
H      -48.18220000     -34.69690000     -69.67350000
H      -47.02190000     -35.07760000     -70.89140000
C      -47.91600000     -33.24570000     -71.29250000
C      -49.17970000     -32.69370000     -71.21650000
C      -47.10310000     -32.81580000     -72.42190000
H      -49.93960000     -32.84170000     -70.47040000
C      -47.82580000     -31.86200000     -73.17960000
C      -45.84300000     -33.12380000     -73.02360000
C      -45.61110000     -32.31300000     -74.15270000
S      -49.44870000     -31.63230000     -72.62920000
S      -47.07680000     -31.48110000     -74.68980000
H      -44.78770000     -32.42150000     -74.88040000
