40
Properties=species:S:1:pos:R:3 #=T CELL(abcABC):=T 1.889726e+02=T 90.00000=T Traj:=T positionsangstrom=T Step:=T 0=T Bead:=T pbc="F F F"
C      -41.67220000     -32.37180000     -70.73960000
C      -41.93430000     -33.76160000     -70.64350000
C      -42.70300000     -34.29710000     -69.55330000
C      -43.29480000     -33.39090000     -68.61900000
C      -43.09770000     -31.98750000     -68.74660000
C      -42.35520000     -31.57370000     -69.85180000
H      -41.18610000     -31.95880000     -71.68760000
H      -42.87260000     -35.42200000     -69.48780000
H      -43.74060000     -31.35330000     -68.17550000
H      -42.21240000     -30.42520000     -70.02030000
C      -44.13560000     -34.08670000     -67.49300000
H      -44.27990000     -33.32090000     -66.62020000
H      -43.55260000     -34.90200000     -67.04300000
C      -41.33560000     -34.72380000     -71.66620000
H      -40.78640000     -34.15700000     -72.47930000
H      -40.66660000     -35.44070000     -71.15740000
S      -45.84130000     -34.74460000     -67.93580000
S      -42.66660000     -35.80980000     -72.43160000
C      -46.51830000     -33.49670000     -69.08660000
H      -47.19070000     -32.75260000     -68.61130000
H      -45.62360000     -33.06410000     -69.66750000
C      -43.68330000     -34.63560000     -73.31820000
H      -43.81540000     -34.96630000     -74.35010000
H      -43.00160000     -33.70160000     -73.35620000
C      -45.00410000     -34.30690000     -72.58290000
H      -45.56770000     -35.22900000     -72.37580000
H      -44.84620000     -33.82520000     -71.56220000
C      -47.34000000     -34.24120000     -70.17120000
H      -48.23890000     -34.71920000     -69.74670000
H      -46.68620000     -35.02020000     -70.69380000
C      -47.89310000     -33.37930000     -71.26830000
C      -49.12620000     -32.84470000     -71.18100000
C      -47.24060000     -33.05250000     -72.54720000
H      -49.86790000     -32.98230000     -70.44600000
C      -47.91950000     -32.01920000     -73.25880000
C      -45.93790000     -33.29820000     -73.19970000
C      -45.60850000     -32.44190000     -74.25230000
S      -49.52140000     -31.80620000     -72.52510000
S      -46.99430000     -31.37780000     -74.60160000
H      -44.67800000     -32.34000000     -74.78180000
