40
Properties=species:S:1:pos:R:3 #=T CELL(abcABC):=T 1.889726e+02=T 90.00000=T Traj:=T positionsangstrom=T Step:=T 0=T Bead:=T pbc="F F F"
C      -43.96110000     -31.17070000     -71.60790000
C      -42.98360000     -32.17820000     -71.73950000
C      -42.68110000     -33.03910000     -70.65260000
C      -43.34580000     -32.92510000     -69.47950000
C      -44.42130000     -32.02700000     -69.38700000
C      -44.59470000     -30.98790000     -70.36110000
H      -44.13130000     -30.53680000     -72.46070000
H      -41.89110000     -33.79700000     -70.78540000
H      -44.94950000     -31.97930000     -68.41550000
H      -45.34080000     -30.22390000     -70.26380000
C      -42.95140000     -33.94000000     -68.46650000
H      -42.92180000     -33.65940000     -67.42960000
H      -42.03440000     -34.41410000     -68.84130000
C      -42.15200000     -32.16910000     -73.08280000
H      -41.66120000     -31.24480000     -73.20030000
H      -41.40480000     -32.98990000     -73.01950000
S      -44.17150000     -35.38920000     -68.34510000
S      -43.48240000     -32.53820000     -74.34370000
C      -44.39020000     -35.89870000     -70.02450000
H      -43.94600000     -35.05430000     -70.69480000
H      -43.94770000     -36.80080000     -70.39220000
C      -43.88760000     -34.14280000     -73.58300000
H      -43.86580000     -34.13370000     -72.54380000
H      -43.09890000     -34.80030000     -74.00520000
C      -45.28040000     -34.67660000     -73.79020000
H      -45.42990000     -34.66850000     -74.85930000
H      -45.31640000     -35.70800000     -73.41110000
C      -45.94490000     -36.02520000     -70.37040000
H      -46.40710000     -36.54910000     -69.55730000
H      -46.07600000     -36.64550000     -71.28960000
C      -46.67120000     -34.73570000     -70.53980000
C      -47.26870000     -34.17700000     -69.44400000
C      -46.85050000     -33.88440000     -71.66490000
H      -47.38640000     -34.64880000     -68.47170000
C      -47.85900000     -32.94030000     -71.47340000
C      -46.36550000     -33.90290000     -73.11480000
C      -47.10160000     -32.96070000     -73.80300000
S      -48.47770000     -32.96360000     -69.87740000
S      -48.24100000     -31.98940000     -72.89230000
H      -46.94430000     -32.71190000     -74.87500000
