40
Properties=species:S:1:pos:R:3 #=T CELL(abcABC):=T 1.889726e+02=T 90.00000=T Traj:=T positionsangstrom=T Step:=T 0=T Bead:=T pbc="F F F"
C      -45.67850000     -30.80420000     -74.11250000
C      -44.97780000     -30.60180000     -72.88680000
C      -45.67220000     -30.52210000     -71.67320000
C      -47.08180000     -30.50160000     -71.59760000
C      -47.74320000     -30.62120000     -72.86980000
C      -47.09520000     -30.80700000     -74.07500000
H      -45.24680000     -31.08220000     -75.07860000
H      -45.02930000     -30.56290000     -70.75450000
H      -48.81640000     -30.75470000     -72.87210000
H      -47.58140000     -31.08310000     -74.99710000
C      -47.77580000     -30.47060000     -70.23660000
H      -48.63020000     -29.75850000     -70.22250000
H      -47.08560000     -30.13040000     -69.51590000
C      -43.48760000     -30.47770000     -72.97750000
H      -43.02910000     -31.00720000     -73.84090000
H      -43.30690000     -29.40430000     -73.18550000
S      -48.64130000     -32.06950000     -69.82510000
S      -42.45740000     -30.68310000     -71.42240000
C      -47.41080000     -33.39820000     -69.80690000
H      -46.58090000     -33.22140000     -69.05390000
H      -47.98200000     -34.23050000     -69.31060000
C      -42.29240000     -32.45840000     -71.16240000
H      -41.36590000     -32.59660000     -70.54150000
H      -42.04930000     -32.93310000     -72.16670000
C      -43.58820000     -33.12190000     -70.56640000
H      -43.70670000     -32.77260000     -69.54750000
H      -44.48650000     -32.69460000     -71.12300000
C      -46.95710000     -33.78400000     -71.25250000
H      -46.36010000     -32.98410000     -71.62890000
H      -47.83850000     -33.85050000     -71.90950000
C      -46.20530000     -35.12450000     -71.30540000
C      -46.93040000     -36.29020000     -71.55830000
C      -44.80380000     -35.43610000     -70.91220000
H      -47.89350000     -36.24750000     -71.97810000
C      -44.56100000     -36.82860000     -70.86250000
C      -43.66480000     -34.65770000     -70.58730000
C      -42.56130000     -35.47050000     -70.31790000
S      -45.98180000     -37.78590000     -71.33200000
S      -42.94280000     -37.19040000     -70.46140000
H      -41.62790000     -34.99740000     -70.10700000
