40
Properties=species:S:1:pos:R:3 #=T CELL(abcABC):=T 1.889726e+02=T 90.00000=T Traj:=T positionsangstrom=T Step:=T 0=T Bead:=T pbc="F F F"
C      -45.61830000     -30.77340000     -73.98260000
C      -44.95320000     -30.54870000     -72.77550000
C      -45.64830000     -30.27480000     -71.59220000
C      -47.00530000     -30.48650000     -71.53320000
C      -47.67780000     -30.87380000     -72.68520000
C      -47.00990000     -30.86110000     -73.90330000
H      -45.11520000     -30.76880000     -74.89740000
H      -45.03540000     -29.88960000     -70.68040000
H      -48.76940000     -30.91460000     -72.80840000
H      -47.65570000     -30.89520000     -74.84680000
C      -47.74900000     -30.39860000     -70.20420000
H      -48.44810000     -29.61630000     -70.11530000
H      -46.93970000     -30.25570000     -69.37860000
C      -43.41730000     -30.41830000     -72.81870000
H      -43.13150000     -31.16650000     -73.59420000
H      -43.07830000     -29.48620000     -73.14780000
S      -48.71320000     -31.95530000     -69.87620000
S      -42.37820000     -30.78730000     -71.36650000
C      -47.42300000     -33.46610000     -69.94520000
H      -46.56560000     -33.20390000     -69.35580000
H      -47.97000000     -34.31300000     -69.53180000
C      -42.54840000     -32.65790000     -71.36880000
H      -41.62500000     -33.04870000     -70.96550000
H      -42.61920000     -33.02470000     -72.37660000
C      -43.79440000     -33.14000000     -70.52520000
H      -43.60540000     -32.84150000     -69.45450000
H      -44.74160000     -32.74440000     -70.90090000
C      -46.99160000     -33.82490000     -71.36180000
H      -46.47440000     -33.00120000     -71.85380000
H      -47.87610000     -33.86610000     -71.96030000
C      -46.21300000     -35.12750000     -71.35410000
C      -46.89550000     -36.32610000     -71.57690000
C      -44.85610000     -35.37130000     -70.85960000
H      -47.93010000     -36.33840000     -71.79510000
C      -44.54300000     -36.73900000     -70.99590000
C      -43.71920000     -34.65380000     -70.54360000
C      -42.55820000     -35.44700000     -70.28590000
S      -45.89860000     -37.79900000     -71.45260000
S      -42.96290000     -37.17890000     -70.52160000
H      -41.68070000     -35.05500000     -69.92200000
