40
Properties=species:S:1:pos:R:3 #=T CELL(abcABC):=T 1.889726e+02=T 90.00000=T Traj:=T positionsangstrom=T Step:=T 0=T Bead:=T pbc="F F F"
C      -48.05490000     -35.53860000     -70.80690000
C      -48.27320000     -34.59470000     -71.83110000
C      -48.49940000     -33.28310000     -71.46270000
C      -48.49480000     -32.90140000     -70.10960000
C      -48.16120000     -33.82160000     -69.10800000
C      -47.95940000     -35.15040000     -69.45600000
H      -47.92690000     -36.64530000     -71.07500000
H      -48.79270000     -32.53720000     -72.25760000
H      -48.33970000     -33.55640000     -68.09380000
H      -47.60100000     -35.92610000     -68.69720000
C      -48.73260000     -31.44610000     -69.75660000
H      -48.69690000     -31.27990000     -68.67000000
H      -49.61700000     -31.08760000     -70.27290000
C      -48.50270000     -35.14790000     -73.17250000
H      -48.98970000     -36.18690000     -73.08260000
H      -49.16280000     -34.55610000     -73.78830000
S      -47.37470000     -30.53410000     -70.71790000
S      -47.01940000     -35.44170000     -74.30560000
C      -45.87970000     -31.55410000     -70.43130000
H      -45.59640000     -31.37960000     -69.34320000
H      -46.01880000     -32.61690000     -70.52860000
C      -45.41650000     -35.40750000     -73.43510000
H      -44.67520000     -35.78800000     -74.20260000
H      -45.52070000     -36.10290000     -72.57570000
C      -44.87600000     -33.96550000     -72.90290000
H      -44.76940000     -33.27660000     -73.75880000
H      -45.60370000     -33.62400000     -72.20860000
C      -44.77560000     -31.07390000     -71.48280000
H      -44.88920000     -29.96660000     -71.54100000
H      -45.06260000     -31.36860000     -72.49290000
C      -43.43350000     -31.66620000     -71.11150000
C      -42.57690000     -30.99570000     -70.26910000
C      -43.03870000     -33.06320000     -71.31840000
H      -42.62740000     -29.98550000     -69.87900000
C      -41.91690000     -33.42030000     -70.63150000
C      -43.57950000     -34.10730000     -72.15380000
C      -42.84270000     -35.24820000     -72.09040000
S      -41.23740000     -32.02380000     -69.71800000
S      -41.37340000     -34.92330000     -71.09350000
H      -42.97970000     -36.13010000     -72.64110000
