40
Properties=species:S:1:pos:R:3 #=T CELL(abcABC):=T 1.889726e+02=T 90.00000=T Traj:=T positionsangstrom=T Step:=T 0=T Bead:=T pbc="F F F"
C      -48.41300000     -35.67370000     -72.29780000
C      -48.22610000     -34.31480000     -72.67820000
C      -48.28160000     -33.32050000     -71.72410000
C      -48.61480000     -33.67010000     -70.39780000
C      -48.77690000     -35.02490000     -70.02420000
C      -48.62990000     -36.01730000     -70.96550000
H      -48.29540000     -36.40560000     -73.12870000
H      -48.16150000     -32.31320000     -71.97510000
H      -48.98310000     -35.30570000     -68.98840000
H      -48.67840000     -37.10630000     -70.73750000
C      -48.57110000     -32.58640000     -69.35310000
H      -48.96290000     -33.06820000     -68.47980000
H      -49.20620000     -31.70430000     -69.71380000
C      -48.04430000     -34.04040000     -74.20130000
H      -48.02030000     -34.97960000     -74.72400000
H      -48.87010000     -33.46650000     -74.63640000
S      -46.80360000     -32.10910000     -68.93560000
S      -46.63510000     -32.95690000     -74.68000000
C      -46.10720000     -33.74430000     -68.44680000
H      -45.57170000     -33.56230000     -67.53850000
H      -46.91780000     -34.46790000     -68.24660000
C      -45.07780000     -34.09240000     -74.53300000
H      -44.37190000     -33.68210000     -75.16190000
H      -45.26050000     -35.01520000     -75.05890000
C      -44.58150000     -34.37590000     -73.10930000
H      -45.48070000     -34.37350000     -72.45280000
H      -44.13280000     -35.34760000     -73.01280000
C      -45.21890000     -34.35880000     -69.59600000
H      -45.81180000     -34.38260000     -70.52250000
H      -45.04770000     -35.43930000     -69.31120000
C      -43.85120000     -33.64810000     -69.80150000
C      -43.11270000     -33.30020000     -68.75410000
C      -43.29270000     -33.21370000     -71.09490000
H      -43.33970000     -33.33720000     -67.67230000
C      -42.05920000     -32.59700000     -70.86380000
C      -43.45290000     -33.44720000     -72.56230000
C      -42.52350000     -32.79450000     -73.27510000
S      -41.69100000     -32.38870000     -69.12090000
S      -41.17270000     -32.07090000     -72.27490000
H      -42.40670000     -32.78510000     -74.34310000
