40
Properties=species:S:1:pos:R:3 #=T CELL(abcABC):=T 1.889726e+02=T 90.00000=T Traj:=T positionsangstrom=T Step:=T 0=T Bead:=T pbc="F F F"
C      -45.27360000     -30.58500000     -73.79020000
C      -44.93970000     -30.13760000     -72.51100000
C      -45.83310000     -30.22040000     -71.45090000
C      -47.14850000     -30.62930000     -71.62990000
C      -47.56680000     -31.00030000     -72.94550000
C      -46.59180000     -31.12160000     -73.98040000
H      -44.54250000     -30.75340000     -74.58890000
H      -45.43820000     -30.14520000     -70.48440000
H      -48.61940000     -31.18750000     -73.20450000
H      -46.76060000     -31.54080000     -74.94390000
C      -48.09230000     -30.66810000     -70.38650000
H      -48.87530000     -30.03240000     -70.72220000
H      -47.65970000     -30.18960000     -69.54020000
C      -43.48620000     -29.70660000     -72.24150000
H      -42.87690000     -29.78470000     -73.17780000
H      -43.37310000     -28.69710000     -71.91590000
S      -48.91160000     -32.35370000     -70.03780000
S      -42.60710000     -30.60530000     -70.88300000
C      -47.55250000     -33.56020000     -69.79320000
H      -46.67700000     -33.09540000     -69.26870000
H      -47.94100000     -34.32810000     -69.09510000
C      -42.46100000     -32.34670000     -71.36730000
H      -41.62510000     -32.76050000     -70.74400000
H      -42.19750000     -32.48500000     -72.40640000
C      -43.77550000     -33.00670000     -71.02910000
H      -44.10290000     -32.60390000     -70.09550000
H      -44.55580000     -32.77330000     -71.83980000
C      -47.13690000     -34.15770000     -71.21290000
H      -46.56050000     -33.34470000     -71.82190000
H      -47.99650000     -34.49110000     -71.72860000
C      -46.31980000     -35.37900000     -71.03980000
C      -46.87100000     -36.65290000     -70.95570000
C      -44.84190000     -35.46950000     -70.94570000
H      -47.91430000     -36.89760000     -70.93650000
C      -44.43850000     -36.79020000     -71.06570000
C      -43.73020000     -34.55050000     -71.03330000
C      -42.52570000     -35.19530000     -71.25150000
S      -45.74440000     -37.93020000     -70.88820000
S      -42.70420000     -36.92400000     -71.27710000
H      -41.52310000     -34.88810000     -71.44330000
