40
Properties=species:S:1:pos:R:3 #=T CELL(abcABC):=T 1.889726e+02=T 90.00000=T Traj:=T positionsangstrom=T Step:=T 0=T Bead:=T pbc="F F F"
C      -45.59390000     -30.58450000     -73.74380000
C      -45.03140000     -30.25220000     -72.51110000
C      -45.79240000     -30.32660000     -71.30750000
C      -47.16600000     -30.71530000     -71.38890000
C      -47.73460000     -30.98720000     -72.64080000
C      -46.96420000     -31.01400000     -73.81880000
H      -44.96280000     -30.46030000     -74.62720000
H      -45.35700000     -30.14730000     -70.34430000
H      -48.74480000     -31.38350000     -72.67380000
H      -47.40730000     -31.32070000     -74.72510000
C      -47.94780000     -30.71280000     -70.10040000
H      -48.81970000     -30.07110000     -70.16740000
H      -47.41300000     -30.52410000     -69.20250000
C      -43.51830000     -29.93430000     -72.42040000
H      -43.02400000     -30.42360000     -73.24620000
H      -43.41210000     -28.85710000     -72.44860000
S      -48.74830000     -32.33090000     -69.70300000
S      -42.57800000     -30.50460000     -70.87700000
C      -47.39480000     -33.49620000     -69.82910000
H      -46.56240000     -33.18900000     -69.21740000
H      -47.75960000     -34.33890000     -69.22540000
C      -42.43520000     -32.42160000     -71.04830000
H      -42.14420000     -32.73960000     -70.04210000
H      -41.65000000     -32.54230000     -71.79200000
C      -43.74150000     -33.09120000     -71.49100000
H      -44.58970000     -32.61690000     -71.03620000
H      -43.97050000     -32.87450000     -72.53960000
C      -47.00660000     -33.93830000     -71.26090000
H      -46.38540000     -33.16320000     -71.76600000
H      -47.88990000     -34.06660000     -71.80450000
C      -46.21790000     -35.27240000     -71.42670000
C      -46.94970000     -36.44650000     -71.35380000
C      -44.82380000     -35.48160000     -71.25330000
H      -48.05550000     -36.50020000     -71.44250000
C      -44.44000000     -36.81930000     -71.21210000
C      -43.65200000     -34.61250000     -71.21670000
C      -42.43610000     -35.30250000     -71.14530000
S      -45.83780000     -37.86230000     -71.26990000
S      -42.69470000     -37.02690000     -71.04620000
H      -41.42850000     -34.83610000     -71.28220000
