40
Properties=species:S:1:pos:R:3 #=T CELL(abcABC):=T 1.889726e+02=T 90.00000=T Traj:=T positionsangstrom=T Step:=T 0=T Bead:=T pbc="F F F"
C      -45.47990000     -30.71640000     -73.65770000
C      -44.98740000     -30.24780000     -72.45630000
C      -45.76050000     -30.21180000     -71.29550000
C      -47.13490000     -30.55050000     -71.40470000
C      -47.70590000     -30.83980000     -72.63890000
C      -46.88380000     -30.93400000     -73.76960000
H      -44.78540000     -30.93410000     -74.41800000
H      -45.40780000     -29.82980000     -70.35070000
H      -48.74450000     -30.88620000     -72.70460000
H      -47.35050000     -31.23550000     -74.71690000
C      -47.91880000     -30.63700000     -70.13590000
H      -48.77910000     -29.95880000     -70.25220000
H      -47.37930000     -30.10830000     -69.25710000
C      -43.55160000     -29.86720000     -72.36190000
H      -42.96560000     -30.20360000     -73.22180000
H      -43.40680000     -28.77940000     -72.33820000
S      -48.68110000     -32.24110000     -69.83240000
S      -42.79580000     -30.49980000     -70.81240000
C      -47.30740000     -33.61740000     -70.07370000
H      -46.40070000     -33.27190000     -69.59270000
H      -47.71160000     -34.50930000     -69.52910000
C      -42.47880000     -32.30380000     -71.13900000
H      -41.92940000     -32.66080000     -70.25620000
H      -41.85660000     -32.42200000     -71.97050000
C      -43.74270000     -33.13330000     -71.41810000
H      -44.50740000     -32.93060000     -70.64370000
H      -44.02300000     -32.89070000     -72.46990000
C      -47.07170000     -34.08100000     -71.48990000
H      -46.50720000     -33.28880000     -72.02680000
H      -48.08920000     -34.22590000     -71.93530000
C      -46.27500000     -35.36230000     -71.43140000
C      -46.86120000     -36.60240000     -71.32260000
C      -44.84500000     -35.52330000     -71.29070000
H      -47.91120000     -36.82800000     -71.46300000
C      -44.45440000     -36.84680000     -71.05200000
C      -43.67950000     -34.64250000     -71.26880000
C      -42.51180000     -35.33310000     -71.25650000
S      -45.76950000     -37.95590000     -71.09080000
S      -42.69580000     -37.02010000     -71.02770000
H      -41.50400000     -34.84550000     -71.15610000
