40
Properties=species:S:1:pos:R:3 #=T CELL(abcABC):=T 1.889726e+02=T 90.00000=T Traj:=T positionsangstrom=T Step:=T 0=T Bead:=T pbc="F F F"
C      -45.89520000     -30.41510000     -73.43680000
C      -45.34260000     -30.08650000     -72.11960000
C      -46.08820000     -30.25310000     -70.98180000
C      -47.44490000     -30.70230000     -71.09240000
C      -48.01050000     -30.92370000     -72.34790000
C      -47.22300000     -30.88700000     -73.54960000
H      -45.32490000     -30.34140000     -74.31670000
H      -45.61170000     -30.01730000     -69.99690000
H      -49.01640000     -31.25570000     -72.48780000
H      -47.51780000     -31.25090000     -74.50930000
C      -48.15930000     -31.08440000     -69.84940000
H      -48.89700000     -30.40780000     -69.54740000
H      -47.35660000     -31.05990000     -69.18440000
C      -43.92710000     -29.66750000     -72.09500000
H      -43.44570000     -29.73290000     -73.11450000
H      -44.00180000     -28.55580000     -71.87770000
S      -48.85710000     -32.80380000     -69.92900000
S      -42.82350000     -30.33380000     -70.76840000
C      -47.38650000     -33.90780000     -69.83200000
H      -46.46620000     -33.44830000     -69.28730000
H      -47.60160000     -34.72500000     -69.13950000
C      -42.55440000     -32.11870000     -71.26900000
H      -41.92320000     -32.56560000     -70.48150000
H      -41.93330000     -32.25500000     -72.18730000
C      -43.84630000     -32.89330000     -71.29420000
H      -44.32690000     -32.71870000     -70.34690000
H      -44.41500000     -32.69680000     -72.16240000
C      -47.10630000     -34.43070000     -71.24440000
H      -46.87590000     -33.55830000     -71.87260000
H      -48.04860000     -34.73840000     -71.72360000
C      -46.09770000     -35.47510000     -71.42510000
C      -46.53880000     -36.80250000     -71.49410000
C      -44.64380000     -35.43230000     -71.29030000
H      -47.57500000     -37.10620000     -71.29270000
C      -44.08310000     -36.70090000     -71.34850000
C      -43.57860000     -34.39260000     -71.35100000
C      -42.31750000     -34.97600000     -71.32400000
S      -45.27260000     -37.96490000     -71.60010000
S      -42.31550000     -36.69170000     -71.36200000
H      -41.35460000     -34.49920000     -71.49990000
