40
Properties=species:S:1:pos:R:3 #=T CELL(abcABC):=T 1.889726e+02=T 90.00000=T Traj:=T positionsangstrom=T Step:=T 0=T Bead:=T pbc="F F F"
C      -46.17150000     -29.69750000     -73.17390000
C      -45.48270000     -29.84120000     -71.96130000
C      -46.24200000     -30.53850000     -70.88120000
C      -47.63440000     -30.78320000     -71.00260000
C      -48.25230000     -30.52390000     -72.24460000
C      -47.56040000     -29.96810000     -73.30960000
H      -45.64530000     -29.40930000     -74.06060000
H      -45.81360000     -30.65740000     -69.88630000
H      -49.32260000     -30.78840000     -72.42490000
H      -48.05630000     -29.75100000     -74.21860000
C      -48.40440000     -31.49620000     -69.84940000
H      -49.32930000     -31.06970000     -69.60780000
H      -47.83890000     -31.53520000     -68.92610000
C      -43.99450000     -29.53460000     -71.86210000
H      -43.60810000     -29.73490000     -72.85290000
H      -43.82050000     -28.49800000     -71.63160000
S      -49.08280000     -33.16090000     -70.34110000
S      -42.97930000     -30.34900000     -70.59240000
C      -47.58680000     -34.22060000     -70.21680000
H      -46.89950000     -33.78410000     -69.44460000
H      -47.94630000     -35.18480000     -69.86540000
C      -42.51430000     -32.08120000     -71.08250000
H      -41.86030000     -32.41720000     -70.24750000
H      -41.92520000     -31.94040000     -71.95910000
C      -43.78400000     -32.94930000     -71.23270000
H      -44.37890000     -32.79380000     -70.28700000
H      -44.51060000     -32.71600000     -72.10050000
C      -46.92370000     -34.46610000     -71.55140000
H      -46.54790000     -33.51720000     -71.95450000
H      -47.75220000     -34.77390000     -72.19350000
C      -45.90500000     -35.60470000     -71.50270000
C      -46.31650000     -36.88490000     -71.62550000
C      -44.44100000     -35.49440000     -71.39470000
H      -47.33270000     -37.28920000     -71.53660000
C      -43.79100000     -36.73000000     -71.46840000
C      -43.43220000     -34.40210000     -71.28020000
C      -42.17440000     -34.88920000     -71.17520000
S      -44.97280000     -38.02660000     -71.60690000
S      -42.02940000     -36.67050000     -71.33220000
H      -41.23500000     -34.38070000     -71.37080000
