40
Properties=species:S:1:pos:R:3 #=T CELL(abcABC):=T 1.889726e+02=T 90.00000=T Traj:=T positionsangstrom=T Step:=T 0=T Bead:=T pbc="F F F"
C      -48.54230000     -35.86680000     -72.25940000
C      -48.34650000     -34.53430000     -72.53480000
C      -48.30020000     -33.61060000     -71.49030000
C      -48.63740000     -33.91980000     -70.17470000
C      -48.87450000     -35.31750000     -69.87000000
C      -48.77610000     -36.25520000     -70.91170000
H      -48.41680000     -36.71850000     -72.99560000
H      -48.24950000     -32.56510000     -71.82680000
H      -49.02280000     -35.57950000     -68.83180000
H      -48.99980000     -37.30040000     -70.70100000
C      -48.52600000     -32.77130000     -69.22150000
H      -49.08470000     -33.05980000     -68.29860000
H      -48.79660000     -31.86580000     -69.56270000
C      -47.89750000     -34.10490000     -73.88240000
H      -47.99440000     -34.89770000     -74.64780000
H      -48.44550000     -33.24520000     -74.24520000
S      -46.74580000     -32.58290000     -68.69260000
S      -46.12800000     -33.56500000     -73.65470000
C      -45.75050000     -33.99820000     -69.26330000
H      -46.16940000     -34.95850000     -68.93300000
H      -45.91350000     -34.04210000     -70.34240000
C      -45.34970000     -35.24010000     -73.37690000
H      -45.11620000     -35.68040000     -74.37300000
H      -46.07840000     -35.88560000     -72.94020000
C      -44.20790000     -35.15720000     -72.32020000
H      -44.67190000     -35.39600000     -71.33530000
H      -43.52250000     -35.95800000     -72.56020000
C      -44.21860000     -33.96540000     -68.93410000
H      -43.84880000     -34.95760000     -69.12090000
H      -44.02110000     -33.74840000     -67.85020000
C      -43.38900000     -32.91710000     -69.73200000
C      -42.84470000     -31.77480000     -69.10540000
C      -43.09560000     -32.98470000     -71.13720000
H      -43.15060000     -31.44000000     -68.08560000
C      -42.36770000     -31.92650000     -71.57170000
C      -43.50210000     -33.80010000     -72.30340000
C      -42.94880000     -33.36040000     -73.47100000
S      -41.96060000     -30.85600000     -70.30330000
S      -42.03520000     -31.90340000     -73.29850000
H      -42.98590000     -33.80550000     -74.47330000
