40
Properties=species:S:1:pos:R:3 #=T CELL(abcABC):=T 1.889726e+02=T 90.00000=T Traj:=T positionsangstrom=T Step:=T 0=T Bead:=T pbc="F F F"
C      -48.45690000     -35.73900000     -72.29500000
C      -48.35780000     -34.36350000     -72.53330000
C      -48.33740000     -33.41320000     -71.48340000
C      -48.51080000     -33.83960000     -70.13780000
C      -48.69140000     -35.23730000     -69.93070000
C      -48.67310000     -36.12920000     -70.99610000
H      -48.39980000     -36.42940000     -73.22710000
H      -48.04190000     -32.35300000     -71.63610000
H      -48.87590000     -35.59410000     -68.95970000
H      -48.71580000     -37.20500000     -70.84120000
C      -48.43160000     -32.89610000     -69.00510000
H      -48.90620000     -33.26230000     -68.01620000
H      -48.88920000     -31.94560000     -69.22080000
C      -47.87820000     -33.96620000     -73.91580000
H      -48.03040000     -34.88480000     -74.51720000
H      -48.42220000     -33.17150000     -74.41190000
S      -46.61770000     -32.47320000     -68.65830000
S      -46.01970000     -33.60910000     -73.89390000
C      -45.86280000     -33.97320000     -69.38000000
H      -46.32190000     -34.87390000     -68.93490000
H      -46.04270000     -33.90170000     -70.48120000
C      -45.28780000     -35.16370000     -73.39440000
H      -44.75060000     -35.54940000     -74.28410000
H      -46.05320000     -36.01760000     -73.21560000
C      -44.36700000     -35.09490000     -72.16130000
H      -44.99210000     -35.24030000     -71.21250000
H      -43.69260000     -35.93190000     -72.21700000
C      -44.34630000     -34.06500000     -69.05620000
H      -43.97220000     -35.06190000     -69.44330000
H      -44.27550000     -34.22050000     -68.01870000
C      -43.53950000     -32.97170000     -69.68060000
C      -42.98160000     -31.83290000     -69.13020000
C      -43.31750000     -33.01320000     -71.06990000
H      -43.01730000     -31.65880000     -68.09310000
C      -42.49030000     -31.99420000     -71.54680000
C      -43.54590000     -33.88140000     -72.19220000
C      -42.93250000     -33.51400000     -73.36290000
S      -42.01140000     -30.96020000     -70.24790000
S      -42.06150000     -32.01370000     -73.26100000
H      -42.99800000     -34.02820000     -74.26640000
