40
Properties=species:S:1:pos:R:3 #=T CELL(abcABC):=T 1.889726e+02=T 90.00000=T Traj:=T positionsangstrom=T Step:=T 0=T Bead:=T pbc="F F F"
C      -47.90480000     -35.82360000     -70.91530000
C      -48.28960000     -34.98900000     -71.98190000
C      -48.45740000     -33.62730000     -71.72320000
C      -48.34420000     -33.13860000     -70.42730000
C      -47.84370000     -33.91660000     -69.43720000
C      -47.61880000     -35.28240000     -69.68000000
H      -47.72780000     -36.79730000     -71.11500000
H      -48.69240000     -32.99390000     -72.58560000
H      -47.86310000     -33.52280000     -68.39690000
H      -47.31960000     -35.94750000     -68.88200000
C      -48.78990000     -31.72940000     -70.10510000
H      -48.75990000     -31.48650000     -69.03520000
H      -49.78820000     -31.53520000     -70.52500000
C      -48.47390000     -35.55660000     -73.35090000
H      -48.63240000     -36.63400000     -73.37980000
H      -49.39660000     -35.14280000     -73.87840000
S      -47.58690000     -30.53480000     -70.86990000
S      -46.96670000     -35.11370000     -74.33100000
C      -45.92440000     -30.84640000     -70.12840000
H      -45.78130000     -30.05230000     -69.41050000
H      -45.87370000     -31.83350000     -69.54400000
C      -45.59520000     -35.32620000     -73.17000000
H      -44.80590000     -35.75390000     -73.77880000
H      -46.04500000     -35.94700000     -72.36750000
C      -45.11950000     -34.01410000     -72.54580000
H      -45.12280000     -33.23380000     -73.33390000
H      -46.05840000     -33.66220000     -71.94430000
C      -44.80630000     -30.85750000     -71.16450000
H      -44.55680000     -29.83360000     -71.44950000
H      -45.19290000     -31.40880000     -72.05200000
C      -43.53200000     -31.64980000     -70.63970000
C      -42.47650000     -31.00520000     -70.00240000
C      -43.24870000     -33.02810000     -70.95470000
H      -42.56160000     -30.02040000     -69.54540000
C      -41.90670000     -33.37750000     -70.54530000
C      -43.80820000     -34.07450000     -71.84500000
C      -42.93770000     -35.11250000     -72.00310000
S      -41.04390000     -32.07580000     -69.76350000
S      -41.37010000     -34.84100000     -71.25340000
H      -43.12670000     -36.03760000     -72.55570000
