40
Properties=species:S:1:pos:R:3 #=T CELL(abcABC):=T 1.889726e+02=T 90.00000=T Traj:=T positionsangstrom=T Step:=T 0=T Bead:=T pbc="F F F"
C      -46.25860000     -36.08810000     -69.79040000
C      -46.21040000     -36.45570000     -71.16920000
C      -47.18150000     -35.92050000     -72.03050000
C      -48.17130000     -34.96140000     -71.59810000
C      -48.25190000     -34.68190000     -70.22970000
C      -47.32980000     -35.25520000     -69.30180000
H      -45.49910000     -36.43650000     -69.09810000
H      -47.28030000     -36.29880000     -73.05700000
H      -48.95490000     -33.93080000     -69.85890000
H      -47.39540000     -34.83630000     -68.26610000
C      -49.09630000     -34.38720000     -72.57990000
H      -50.09370000     -34.10630000     -72.18830000
H      -49.33230000     -35.06840000     -73.36270000
C      -45.07040000     -37.30690000     -71.65430000
H      -44.35650000     -37.54510000     -70.82310000
H      -45.42330000     -38.25890000     -72.05040000
S      -48.43790000     -32.80910000     -73.39600000
S      -43.81000000     -36.58140000     -72.92630000
C      -46.70940000     -32.30760000     -72.89100000
H      -45.88790000     -32.97630000     -73.23740000
H      -46.55940000     -31.27370000     -73.18430000
C      -42.96640000     -35.33660000     -71.85160000
H      -41.96100000     -35.27840000     -72.22300000
H      -42.73550000     -35.62900000     -70.78290000
C      -43.89510000     -34.07900000     -71.92640000
H      -44.17010000     -33.82100000     -72.99200000
H      -44.81390000     -34.23010000     -71.42440000
C      -46.70140000     -32.32300000     -71.34200000
H      -46.68730000     -33.37900000     -70.91430000
H      -47.60330000     -31.82230000     -70.97410000
C      -45.58420000     -31.48550000     -70.80840000
C      -45.83550000     -30.30940000     -70.24290000
C      -44.17550000     -31.81780000     -70.90350000
H      -46.84690000     -29.93060000     -70.17050000
C      -43.44510000     -30.73380000     -70.30200000
C      -43.29410000     -32.92950000     -71.14610000
C      -41.98560000     -32.70690000     -70.74090000
S      -44.38430000     -29.43290000     -69.73860000
S      -41.76170000     -31.08320000     -70.14540000
H      -41.06240000     -33.31100000     -70.86370000
