40
Properties=species:S:1:pos:R:3 #=T CELL(abcABC):=T 1.889726e+02=T 90.00000=T Traj:=T positionsangstrom=T Step:=T 0=T Bead:=T pbc="F F F"
C      -44.75450000     -31.99970000     -69.20930000
C      -43.99630000     -33.05890000     -69.76070000
C      -44.38800000     -34.38720000     -69.47560000
C      -45.62240000     -34.65780000     -68.82830000
C      -46.32670000     -33.55690000     -68.26470000
C      -45.84770000     -32.25180000     -68.43390000
H      -44.50380000     -30.99320000     -69.43070000
H      -43.77360000     -35.26500000     -69.87180000
H      -47.14470000     -33.81590000     -67.60590000
H      -46.51260000     -31.43250000     -68.23310000
C      -46.12680000     -36.04760000     -68.73870000
H      -46.79930000     -36.13050000     -67.89840000
H      -45.20140000     -36.66720000     -68.77380000
C      -42.87190000     -32.67500000     -70.73420000
H      -43.27270000     -31.84670000     -71.28070000
H      -41.92490000     -32.28450000     -70.25530000
S      -47.21360000     -36.52360000     -70.18010000
S      -42.05420000     -33.88330000     -71.84560000
C      -46.14760000     -36.21740000     -71.67220000
H      -45.21880000     -35.92750000     -71.34780000
H      -46.14350000     -37.19070000     -72.12960000
C      -43.16660000     -34.69650000     -73.10290000
H      -43.87330000     -35.31700000     -72.60350000
H      -42.42890000     -35.32990000     -73.61600000
C      -43.85180000     -33.78670000     -74.23590000
H      -43.00700000     -33.53960000     -74.86850000
H      -44.47580000     -34.46790000     -74.82710000
C      -46.67660000     -35.19060000     -72.70310000
H      -47.66200000     -35.47510000     -73.04570000
H      -46.05360000     -35.26770000     -73.51900000
C      -46.67910000     -33.74400000     -72.28510000
C      -47.70340000     -33.24410000     -71.56960000
C      -45.76540000     -32.66580000     -72.79640000
H      -48.47990000     -33.76030000     -71.00510000
C      -46.10690000     -31.43160000     -72.28170000
C      -44.55630000     -32.56560000     -73.59280000
C      -43.98210000     -31.34080000     -73.53690000
S      -47.50610000     -31.51980000     -71.18800000
S      -45.00250000     -30.14180000     -72.75930000
H      -43.04990000     -30.99420000     -74.07880000
