40
Properties=species:S:1:pos:R:3 #=T CELL(abcABC):=T 1.889726e+02=T 90.00000=T Traj:=T positionsangstrom=T Step:=T 0=T Bead:=T pbc="F F F"
C      -47.54230000     -31.68440000     -74.45310000
C      -46.17610000     -31.57770000     -74.10840000
C      -45.96890000     -31.04080000     -72.78790000
C      -47.00540000     -30.71990000     -71.90370000
C      -48.39200000     -30.97670000     -72.26690000
C      -48.61540000     -31.54230000     -73.55340000
H      -47.67440000     -32.06120000     -75.46570000
H      -44.91450000     -30.69350000     -72.52040000
H      -49.22880000     -30.74400000     -71.49930000
H      -49.64570000     -31.83240000     -73.75590000
C      -46.59870000     -30.09730000     -70.57350000
H      -46.89990000     -29.01870000     -70.56540000
H      -45.53650000     -30.31010000     -70.33780000
C      -45.12150000     -32.02290000     -75.07260000
H      -45.39420000     -33.07650000     -75.39830000
H      -45.12510000     -31.47310000     -76.00820000
S      -47.59220000     -30.81670000     -69.15280000
S      -43.33950000     -31.98230000     -74.56060000
C      -46.54830000     -32.29260000     -68.86650000
H      -45.54630000     -32.00540000     -68.69570000
H      -46.90270000     -32.65710000     -67.86670000
C      -43.21330000     -33.60330000     -73.61280000
H      -42.19090000     -33.61400000     -73.20590000
H      -43.29770000     -34.53290000     -74.21900000
C      -44.10390000     -33.60840000     -72.35850000
H      -43.90000000     -32.68010000     -71.73270000
H      -45.12080000     -33.69250000     -72.67020000
C      -46.52640000     -33.42060000     -69.90050000
H      -46.12130000     -33.03570000     -70.82860000
H      -47.62190000     -33.76510000     -69.90390000
C      -45.63790000     -34.58930000     -69.55080000
C      -45.90370000     -35.33220000     -68.40550000
C      -44.55660000     -35.12800000     -70.30080000
H      -46.65720000     -35.10940000     -67.65160000
C      -44.05840000     -36.27680000     -69.61220000
C      -43.74320000     -34.79550000     -71.40690000
C      -42.65400000     -35.61130000     -71.51530000
S      -44.89240000     -36.72260000     -68.21780000
S      -42.58630000     -36.92800000     -70.33790000
H      -41.93590000     -35.63150000     -72.33090000
