40
Properties=species:S:1:pos:R:3 #=T CELL(abcABC):=T 1.889726e+02=T 90.00000=T Traj:=T positionsangstrom=T Step:=T 0=T Bead:=T pbc="F F F"
C      -49.29280000     -35.38670000     -69.44500000
C      -48.30520000     -35.14980000     -70.43340000
C      -47.84430000     -33.86190000     -70.67400000
C      -48.25690000     -32.76120000     -69.89460000
C      -49.20740000     -33.06250000     -68.90090000
C      -49.74990000     -34.32360000     -68.68980000
H      -49.65170000     -36.43880000     -69.37150000
H      -47.19720000     -33.67280000     -71.57150000
H      -49.51310000     -32.20290000     -68.26000000
H      -50.48130000     -34.56890000     -67.95200000
C      -47.63550000     -31.33090000     -70.01910000
H      -48.06920000     -30.69680000     -69.21980000
H      -48.04120000     -30.83330000     -70.94090000
C      -47.81060000     -36.31680000     -71.24320000
H      -46.96650000     -36.58780000     -70.61750000
H      -48.66200000     -37.00110000     -71.23710000
S      -45.87120000     -31.19950000     -70.34120000
S      -47.14150000     -35.90030000     -72.82930000
C      -45.02230000     -32.05290000     -68.89280000
H      -44.59030000     -31.28660000     -68.19700000
H      -45.79580000     -32.57700000     -68.31330000
C      -45.30090000     -36.30760000     -72.51870000
H      -44.79900000     -36.42090000     -73.51230000
H      -45.45380000     -37.30410000     -71.94310000
C      -44.49090000     -35.31900000     -71.75820000
H      -45.16900000     -34.81990000     -71.05280000
H      -43.78060000     -35.90970000     -71.20210000
C      -43.93580000     -33.02910000     -69.30640000
H      -44.44630000     -34.00010000     -69.57680000
H      -43.24950000     -33.22470000     -68.49010000
C      -43.16750000     -32.50420000     -70.51150000
C      -42.43070000     -31.36110000     -70.41660000
C      -43.22980000     -33.09780000     -71.83060000
H      -42.24260000     -30.91260000     -69.44890000
C      -42.49700000     -32.23860000     -72.66190000
C      -43.74990000     -34.25130000     -72.50420000
C      -43.45630000     -34.27310000     -73.84990000
S      -41.65020000     -30.94390000     -71.92510000
S      -42.36630000     -32.92830000     -74.34460000
H      -43.58720000     -35.07160000     -74.59250000
