40
Properties=species:S:1:pos:R:3 #=T CELL(abcABC):=T 1.889726e+02=T 90.00000=T Traj:=T positionsangstrom=T Step:=T 0=T Bead:=T pbc="F F F"
C      -47.62840000     -35.83820000     -70.88730000
C      -48.22980000     -35.12330000     -71.89910000
C      -48.66550000     -33.83620000     -71.68270000
C      -48.59860000     -33.22270000     -70.40580000
C      -47.99520000     -33.94090000     -69.36400000
C      -47.48260000     -35.22750000     -69.62830000
H      -47.11940000     -36.79280000     -71.12880000
H      -48.89950000     -33.14990000     -72.53950000
H      -47.81470000     -33.55730000     -68.34780000
H      -46.97420000     -35.79570000     -68.87150000
C      -48.98700000     -31.82010000     -70.19410000
H      -49.14250000     -31.70690000     -69.10160000
H      -49.94850000     -31.62890000     -70.68450000
C      -48.19930000     -35.72370000     -73.27490000
H      -47.82400000     -36.76460000     -73.21340000
H      -49.27340000     -35.90400000     -73.67850000
S      -47.66970000     -30.62780000     -70.68340000
S      -47.05720000     -34.73330000     -74.44790000
C      -45.96610000     -31.18270000     -70.17510000
H      -45.70350000     -30.84800000     -69.23430000
H      -45.99470000     -32.31820000     -70.05760000
C      -45.38480000     -35.02220000     -73.65000000
H      -44.67030000     -34.74260000     -74.37820000
H      -45.44640000     -36.08810000     -73.27860000
C      -45.17870000     -34.09360000     -72.44560000
H      -45.40980000     -33.06780000     -72.70540000
H      -45.77020000     -34.17240000     -71.51530000
C      -44.88480000     -30.81340000     -71.15340000
H      -44.62730000     -29.77590000     -71.06310000
H      -45.25670000     -31.02240000     -72.16310000
C      -43.49160000     -31.56330000     -70.81170000
C      -42.47020000     -30.98630000     -70.06400000
C      -43.09290000     -32.94260000     -71.20260000
H      -42.44200000     -29.93410000     -69.92810000
C      -41.83510000     -33.26720000     -70.71670000
C      -43.73730000     -34.09780000     -71.84560000
C      -42.88860000     -35.17040000     -71.89750000
S      -41.04970000     -32.02250000     -69.80530000
S      -41.38560000     -34.93860000     -71.01420000
H      -43.09900000     -36.14420000     -72.29940000
