40
Properties=species:S:1:pos:R:3 #=T CELL(abcABC):=T 1.889726e+02=T 90.00000=T Traj:=T positionsangstrom=T Step:=T 0=T Bead:=T pbc="F F F"
C      -49.57360000     -35.35500000     -70.00000000
C      -48.28450000     -35.14480000     -70.59080000
C      -47.63910000     -33.93770000     -70.37550000
C      -48.18510000     -33.00320000     -69.48630000
C      -49.41340000     -33.28930000     -68.84990000
C      -50.11590000     -34.49080000     -69.06540000
H      -50.06310000     -36.30480000     -70.35450000
H      -46.63020000     -33.73480000     -70.74010000
H      -49.92520000     -32.55380000     -68.27060000
H      -51.11700000     -34.58210000     -68.75660000
C      -47.47110000     -31.64500000     -69.26450000
H      -47.59060000     -31.36270000     -68.23060000
H      -48.04370000     -30.91240000     -69.88780000
C      -47.97310000     -36.16650000     -71.69030000
H      -47.26050000     -36.91380000     -71.45150000
H      -48.93500000     -36.65360000     -72.06530000
S      -45.73620000     -31.43180000     -69.89800000
S      -46.98310000     -35.56420000     -73.21130000
C      -44.65900000     -32.12530000     -68.56990000
H      -44.14650000     -31.28990000     -68.07150000
H      -45.31720000     -32.68170000     -67.88690000
C      -45.31880000     -36.28360000     -72.80970000
H      -44.94630000     -36.46570000     -73.82070000
H      -45.36630000     -37.21710000     -72.30270000
C      -44.43970000     -35.42450000     -71.94760000
H      -44.98820000     -35.18770000     -71.00340000
H      -43.67090000     -36.16210000     -71.49020000
C      -43.75890000     -33.19660000     -69.25150000
H      -44.31850000     -34.08630000     -69.55780000
H      -43.05330000     -33.62880000     -68.59850000
C      -43.02340000     -32.67130000     -70.46610000
C      -42.19860000     -31.57910000     -70.34240000
C      -43.11890000     -33.13390000     -71.84040000
H      -42.02570000     -30.95260000     -69.39260000
C      -42.41230000     -32.28070000     -72.69600000
C      -43.85050000     -34.15540000     -72.55930000
C      -43.75790000     -33.95720000     -73.91710000
S      -41.59660000     -30.91330000     -71.85280000
S      -42.77830000     -32.55890000     -74.38310000
H      -44.48950000     -34.42490000     -74.59280000
