40
Properties=species:S:1:pos:R:3 #=T CELL(abcABC):=T 1.889726e+02=T 90.00000=T Traj:=T positionsangstrom=T Step:=T 0=T Bead:=T pbc="F F F"
C      -47.56080000     -35.83640000     -70.75020000
C      -48.13410000     -35.11480000     -71.83190000
C      -48.70380000     -33.88400000     -71.58380000
C      -48.58930000     -33.28580000     -70.28220000
C      -48.13120000     -34.07800000     -69.19010000
C      -47.62630000     -35.36520000     -69.43980000
H      -47.07970000     -36.75420000     -70.87770000
H      -49.11900000     -33.35580000     -72.44090000
H      -48.06640000     -33.56110000     -68.19440000
H      -47.08060000     -35.80920000     -68.63150000
C      -48.83640000     -31.76740000     -70.16230000
H      -49.04130000     -31.58950000     -69.07980000
H      -49.66630000     -31.45610000     -70.76660000
C      -48.01470000     -35.65270000     -73.25740000
H      -47.65830000     -36.61570000     -73.25830000
H      -49.01420000     -35.63220000     -73.67970000
S      -47.46830000     -30.79320000     -70.77130000
S      -47.02790000     -34.60040000     -74.40060000
C      -45.90180000     -31.65190000     -70.36100000
H      -45.65190000     -31.57720000     -69.26680000
H      -46.00610000     -32.72990000     -70.65100000
C      -45.29010000     -34.82110000     -73.79070000
H      -44.56060000     -34.66070000     -74.58090000
H      -45.16590000     -35.85560000     -73.40130000
C      -45.05410000     -33.81190000     -72.63760000
H      -45.17550000     -32.78280000     -72.95230000
H      -45.95410000     -34.06130000     -72.01950000
C      -44.85940000     -30.92230000     -71.18960000
H      -44.85030000     -29.90790000     -70.79910000
H      -45.12960000     -30.80580000     -72.28230000
C      -43.51080000     -31.56840000     -70.93990000
C      -42.57760000     -30.90730000     -70.21840000
C      -43.21000000     -32.96970000     -71.12450000
H      -42.65160000     -29.83560000     -69.92870000
C      -41.95000000     -33.24080000     -70.61960000
C      -43.78730000     -34.01560000     -71.85280000
C      -43.02280000     -35.10720000     -71.89640000
S      -41.12720000     -31.91270000     -69.84410000
S      -41.53230000     -34.98000000     -70.96620000
H      -43.22530000     -36.03670000     -72.40350000
