40
Properties=species:S:1:pos:R:3 #=T CELL(abcABC):=T 1.889726e+02=T 90.00000=T Traj:=T positionsangstrom=T Step:=T 0=T Bead:=T pbc="F F F"
C      -45.37190000     -32.91430000     -69.03950000
C      -44.11230000     -33.42120000     -69.41780000
C      -44.00610000     -34.70460000     -69.88610000
C      -45.17290000     -35.50810000     -69.93880000
C      -46.45830000     -34.98550000     -69.70940000
C      -46.53320000     -33.66410000     -69.14470000
H      -45.37500000     -31.99550000     -68.54980000
H      -43.03270000     -35.12460000     -69.95320000
H      -47.36520000     -35.65830000     -69.85210000
H      -47.53610000     -33.25680000     -68.80960000
C      -44.98680000     -36.89880000     -70.50730000
H      -45.43810000     -37.70290000     -69.96880000
H      -43.91980000     -37.09860000     -70.68310000
C      -42.78960000     -32.76490000     -69.14210000
H      -42.62920000     -31.98520000     -68.35990000
H      -42.07830000     -33.53050000     -68.91000000
S      -45.64950000     -37.02370000     -72.21000000
S      -42.16620000     -31.85880000     -70.61570000
C      -44.76600000     -35.63690000     -72.93980000
H      -44.47940000     -35.03320000     -72.10170000
H      -43.93380000     -35.95140000     -73.51590000
C      -42.48490000     -32.86240000     -72.06310000
H      -42.95840000     -33.83900000     -71.75810000
H      -41.52280000     -33.00840000     -72.52860000
C      -43.30110000     -32.13580000     -73.06310000
H      -42.81150000     -31.23390000     -73.40780000
H      -43.42800000     -32.70290000     -73.91210000
C      -45.76260000     -34.73260000     -73.77690000
H      -46.44010000     -35.37260000     -74.35250000
H      -45.08930000     -34.24920000     -74.52760000
C      -46.48790000     -33.73590000     -72.95400000
C      -47.78880000     -33.96660000     -72.59130000
C      -45.97560000     -32.40060000     -72.43740000
H      -48.29960000     -34.83990000     -72.73470000
C      -47.00300000     -31.77050000     -71.68000000
C      -44.69490000     -31.74160000     -72.46410000
C      -44.87480000     -30.57220000     -71.72700000
S      -48.54660000     -32.65890000     -71.67540000
S      -46.44510000     -30.29510000     -70.95770000
H      -44.21160000     -29.79480000     -71.80250000
