40
Properties=species:S:1:pos:R:3 #=T CELL(abcABC):=T 1.889726e+02=T 90.00000=T Traj:=T positionsangstrom=T Step:=T 0=T Bead:=T pbc="F F F"
C      -44.79270000     -32.83240000     -69.01400000
C      -43.55790000     -33.53660000     -69.32790000
C      -43.72970000     -34.81730000     -69.87320000
C      -44.97580000     -35.46630000     -69.84280000
C      -46.13860000     -34.83040000     -69.39880000
C      -46.05090000     -33.48920000     -69.06340000
H      -44.67130000     -31.77530000     -68.64020000
H      -42.92950000     -35.40220000     -70.35570000
H      -47.08640000     -35.35290000     -69.32430000
H      -46.91440000     -33.03010000     -68.72190000
C      -44.92590000     -36.89610000     -70.36690000
H      -45.24170000     -37.68920000     -69.65350000
H      -43.92310000     -37.25290000     -70.67130000
C      -42.14290000     -32.93170000     -69.36420000
H      -41.92440000     -32.27110000     -68.57320000
H      -41.38200000     -33.76730000     -69.43090000
S      -45.96000000     -37.02000000     -71.85810000
S      -41.99220000     -31.85820000     -70.77530000
C      -45.05170000     -35.70830000     -72.90780000
H      -44.42970000     -35.13650000     -72.25200000
H      -44.35170000     -36.25960000     -73.48470000
C      -42.58070000     -32.96960000     -72.14480000
H      -42.94490000     -33.88550000     -71.66630000
H      -41.71870000     -33.28320000     -72.81180000
C      -43.65210000     -32.38460000     -73.10330000
H      -43.21770000     -31.48810000     -73.72110000
H      -43.94090000     -33.12720000     -73.90450000
C      -46.08760000     -34.88360000     -73.63520000
H      -46.86610000     -35.51820000     -74.09370000
H      -45.56580000     -34.37730000     -74.45690000
C      -46.75900000     -33.83450000     -72.75540000
C      -48.07860000     -33.84530000     -72.45940000
C      -46.16930000     -32.60630000     -72.29180000
H      -48.73220000     -34.67680000     -72.72900000
C      -47.10480000     -31.75010000     -71.71160000
C      -44.87840000     -31.89540000     -72.46330000
C      -44.89650000     -30.61890000     -71.86560000
S      -48.72990000     -32.39740000     -71.84650000
S      -46.52240000     -30.16910000     -71.30290000
H      -43.96360000     -30.06700000     -71.57130000
