40
Properties=species:S:1:pos:R:3 #=T CELL(abcABC):=T 1.889726e+02=T 90.00000=T Traj:=T positionsangstrom=T Step:=T 0=T Bead:=T pbc="F F F"
C      -45.01860000     -32.93770000     -69.13130000
C      -43.79960000     -33.52360000     -69.33070000
C      -43.82590000     -34.96690000     -69.51450000
C      -45.02560000     -35.60520000     -69.80610000
C      -46.29270000     -34.99030000     -69.64470000
C      -46.26860000     -33.64640000     -69.33860000
H      -45.06200000     -31.84100000     -68.97970000
H      -42.90850000     -35.58310000     -69.63830000
H      -47.23280000     -35.53540000     -69.84940000
H      -47.24320000     -33.17570000     -69.25660000
C      -45.09790000     -37.01190000     -70.29770000
H      -45.79550000     -37.53490000     -69.62140000
H      -44.11320000     -37.46830000     -70.14250000
C      -42.63620000     -32.58190000     -69.15940000
H      -42.97690000     -31.84380000     -68.45690000
H      -41.83650000     -33.15450000     -68.61980000
S      -45.79620000     -37.15920000     -72.07340000
S      -42.02220000     -31.73890000     -70.72170000
C      -44.97840000     -35.82870000     -73.02220000
H      -44.17750000     -35.31950000     -72.39830000
H      -44.42450000     -36.33940000     -73.85020000
C      -42.46440000     -32.80850000     -72.15910000
H      -42.86730000     -33.73430000     -71.75750000
H      -41.51780000     -33.13700000     -72.60030000
C      -43.57980000     -32.27240000     -73.15650000
H      -43.03220000     -31.59230000     -73.88200000
H      -43.82690000     -33.11020000     -73.74680000
C      -45.89560000     -34.76060000     -73.71920000
H      -46.61540000     -35.35380000     -74.25990000
H      -45.32490000     -34.24990000     -74.52820000
C      -46.60710000     -33.65590000     -72.93100000
C      -47.96250000     -33.82160000     -72.71720000
C      -46.05850000     -32.43230000     -72.41630000
H      -48.63840000     -34.48960000     -73.13560000
C      -47.03030000     -31.74500000     -71.69040000
C      -44.82520000     -31.73120000     -72.50800000
C      -44.83880000     -30.61290000     -71.66460000
S      -48.62230000     -32.48920000     -71.68190000
S      -46.46970000     -30.22480000     -71.06420000
H      -44.02870000     -29.89820000     -71.66070000
