40
Properties=species:S:1:pos:R:3 #=T CELL(abcABC):=T 1.889726e+02=T 90.00000=T Traj:=T positionsangstrom=T Step:=T 0=T Bead:=T pbc="F F F"
C      -45.42780000     -33.00250000     -68.69440000
C      -44.20050000     -33.48250000     -69.23430000
C      -44.08740000     -34.77180000     -69.68200000
C      -45.23620000     -35.50630000     -69.86760000
C      -46.50990000     -35.05770000     -69.33710000
C      -46.54000000     -33.79400000     -68.73160000
H      -45.37680000     -32.00780000     -68.28150000
H      -43.11850000     -35.09270000     -70.06210000
H      -47.38210000     -35.63290000     -69.58500000
H      -47.46700000     -33.32980000     -68.25850000
C      -45.26730000     -36.87560000     -70.51670000
H      -46.10310000     -37.51860000     -70.17530000
H      -44.35920000     -37.49550000     -70.27910000
C      -42.97980000     -32.60370000     -69.07180000
H      -43.33710000     -31.69530000     -68.53350000
H      -42.25060000     -33.15580000     -68.47420000
S      -45.59890000     -36.95930000     -72.44920000
S      -42.08680000     -31.81530000     -70.51690000
C      -44.67650000     -35.56550000     -73.33880000
H      -43.90870000     -35.17630000     -72.67580000
H      -44.04770000     -35.99220000     -74.19030000
C      -42.48230000     -32.81810000     -72.11600000
H      -43.11270000     -33.65540000     -71.74490000
H      -41.56600000     -33.25270000     -72.53210000
C      -43.33890000     -31.95000000     -73.08630000
H      -42.67300000     -31.05930000     -73.21630000
H      -43.51720000     -32.50870000     -74.07100000
C      -45.59160000     -34.60350000     -74.00110000
H      -46.31100000     -35.18830000     -74.62530000
H      -45.03630000     -33.99650000     -74.67780000
C      -46.37470000     -33.69300000     -73.05610000
C      -47.66450000     -34.03040000     -72.75240000
C      -45.92190000     -32.46050000     -72.38480000
H      -48.18180000     -34.95160000     -72.97790000
C      -46.92910000     -31.91100000     -71.63710000
C      -44.76350000     -31.63710000     -72.49030000
C      -44.92080000     -30.44510000     -71.79520000
S      -48.43830000     -32.86610000     -71.65850000
S      -46.51400000     -30.30180000     -71.08580000
H      -44.11460000     -29.77710000     -71.57590000
