40
Properties=species:S:1:pos:R:3 #=T CELL(abcABC):=T 1.889726e+02=T 90.00000=T Traj:=T positionsangstrom=T Step:=T 0=T Bead:=T pbc="F F F"
C      -44.40330000     -32.86710000     -68.70920000
C      -43.27490000     -33.61590000     -69.16320000
C      -43.55260000     -34.97300000     -69.56390000
C      -44.90540000     -35.44810000     -69.66180000
C      -45.99600000     -34.62530000     -69.35710000
C      -45.70150000     -33.39700000     -68.80830000
H      -44.17980000     -31.91150000     -68.33630000
H      -42.73020000     -35.62630000     -69.77280000
H      -47.00480000     -34.92650000     -69.55630000
H      -46.48280000     -32.69500000     -68.64220000
C      -45.28540000     -36.84570000     -70.13370000
H      -46.07300000     -37.15310000     -69.46400000
H      -44.48670000     -37.55540000     -70.26680000
C      -41.96230000     -32.98170000     -69.33580000
H      -41.65930000     -32.22900000     -68.54890000
H      -41.14090000     -33.69450000     -69.38960000
S      -46.21260000     -36.87990000     -71.82440000
S      -41.95790000     -31.93940000     -71.04560000
C      -45.21780000     -35.83030000     -72.97290000
H      -44.57970000     -35.16550000     -72.38190000
H      -44.63200000     -36.41070000     -73.74180000
C      -42.51230000     -33.13080000     -72.32550000
H      -42.74060000     -34.09510000     -71.82540000
H      -41.69070000     -33.24370000     -73.00590000
C      -43.63780000     -32.48830000     -73.15470000
H      -43.20320000     -31.69120000     -73.56830000
H      -43.84300000     -33.19570000     -73.91540000
C      -46.10480000     -34.77510000     -73.79300000
H      -46.79220000     -35.32320000     -74.44350000
H      -45.48000000     -34.14360000     -74.43190000
C      -46.90730000     -33.76190000     -72.92890000
C      -48.18880000     -33.90400000     -72.60020000
C      -46.29340000     -32.53470000     -72.47920000
H      -48.85430000     -34.78310000     -72.89380000
C      -47.20150000     -31.68030000     -71.86250000
C      -44.89320000     -31.95140000     -72.47740000
C      -44.95460000     -30.62940000     -72.04000000
S      -48.75980000     -32.46070000     -71.61590000
S      -46.49270000     -30.13240000     -71.37660000
H      -44.19700000     -29.83080000     -71.98790000
