40
Properties=species:S:1:pos:R:3 #=T CELL(abcABC):=T 1.889726e+02=T 90.00000=T Traj:=T positionsangstrom=T Step:=T 0=T Bead:=T pbc="F F F"
C      -44.19480000     -32.75260000     -68.72830000
C      -43.22010000     -33.62540000     -69.24310000
C      -43.66930000     -34.86560000     -69.81830000
C      -45.02200000     -35.26620000     -69.65910000
C      -45.95830000     -34.41930000     -69.00830000
C      -45.54960000     -33.18430000     -68.57350000
H      -43.89590000     -31.79610000     -68.34620000
H      -42.93200000     -35.46040000     -70.35120000
H      -46.92970000     -34.83710000     -68.75000000
H      -46.13800000     -32.46500000     -68.01780000
C      -45.31860000     -36.68520000     -70.16780000
H      -45.70300000     -37.36330000     -69.39230000
H      -44.32520000     -37.16260000     -70.36220000
C      -41.80480000     -33.24610000     -69.58460000
H      -41.35020000     -32.59680000     -68.79710000
H      -41.15310000     -34.07100000     -69.74570000
S      -46.39520000     -36.70530000     -71.63050000
S      -41.92510000     -32.12420000     -71.08430000
C      -45.33930000     -35.90300000     -72.90770000
H      -44.51880000     -35.34340000     -72.44550000
H      -44.88740000     -36.71520000     -73.48030000
C      -42.92080000     -33.18920000     -72.26420000
H      -43.67820000     -33.83150000     -71.74060000
H      -42.29750000     -33.94830000     -72.71980000
C      -43.68390000     -32.34210000     -73.29290000
H      -43.11040000     -31.46460000     -73.57890000
H      -43.94050000     -32.94310000     -74.27960000
C      -46.25870000     -35.08150000     -73.77520000
H      -47.08270000     -35.67890000     -74.09910000
H      -45.63890000     -34.84000000     -74.66830000
C      -46.83260000     -33.83300000     -73.04450000
C      -48.09570000     -33.86330000     -72.61600000
C      -46.19910000     -32.52180000     -72.64980000
H      -48.83990000     -34.65880000     -72.72700000
C      -47.09410000     -31.75610000     -71.88050000
C      -44.94550000     -31.81630000     -72.72790000
C      -44.92460000     -30.57130000     -72.13270000
S      -48.62410000     -32.47460000     -71.65600000
S      -46.43520000     -30.26160000     -71.23920000
H      -44.26090000     -29.78920000     -72.28630000
