40
Properties=species:S:1:pos:R:3 #=T CELL(abcABC):=T 1.889726e+02=T 90.00000=T Traj:=T positionsangstrom=T Step:=T 0=T Bead:=T pbc="F F F"
C      -44.05500000     -32.79550000     -68.97070000
C      -43.31190000     -33.86420000     -69.59020000
C      -43.90010000     -35.14140000     -69.77060000
C      -45.22830000     -35.22650000     -69.35390000
C      -45.95630000     -34.16940000     -68.76050000
C      -45.33440000     -33.00280000     -68.48880000
H      -43.61010000     -31.81810000     -68.87760000
H      -43.42950000     -35.90060000     -70.33920000
H      -46.95730000     -34.27620000     -68.41660000
H      -45.87590000     -32.21850000     -67.98420000
C      -46.02970000     -36.57400000     -69.54620000
H      -46.91180000     -36.57200000     -68.75840000
H      -45.34990000     -37.43030000     -69.29610000
C      -41.95470000     -33.52640000     -70.15890000
H      -41.35560000     -33.11390000     -69.36880000
H      -41.44580000     -34.42560000     -70.44970000
S      -46.88330000     -36.58370000     -71.27940000
S      -41.83250000     -32.17420000     -71.37990000
C      -45.60900000     -36.08390000     -72.47000000
H      -44.77440000     -35.69530000     -71.98740000
H      -45.19050000     -36.93580000     -72.96930000
C      -42.36310000     -33.05780000     -72.95990000
H      -42.32710000     -34.09440000     -72.67650000
H      -41.54280000     -32.86130000     -73.65040000
C      -43.65150000     -32.49640000     -73.63030000
H      -43.18510000     -31.59550000     -74.25320000
H      -44.02170000     -33.34950000     -74.24080000
C      -46.12090000     -35.03190000     -73.46670000
H      -46.85650000     -35.46820000     -74.09260000
H      -45.22650000     -34.71000000     -73.99910000
C      -46.81180000     -33.75220000     -72.94830000
C      -48.15990000     -33.64590000     -72.72560000
C      -46.10680000     -32.52970000     -72.59650000
H      -48.97420000     -34.29070000     -73.06070000
C      -46.93730000     -31.74930000     -71.79850000
C      -44.76180000     -31.97360000     -72.71990000
C      -44.64570000     -30.72430000     -72.13910000
S      -48.58800000     -32.32930000     -71.68890000
S      -46.11010000     -30.32340000     -71.22770000
H      -43.67210000     -30.10940000     -72.20450000
