40
Properties=species:S:1:pos:R:3 #=T CELL(abcABC):=T 1.889726e+02=T 90.00000=T Traj:=T positionsangstrom=T Step:=T 0=T Bead:=T pbc="F F F"
C      -46.25040000     -33.06430000     -75.03080000
C      -45.19590000     -32.42000000     -74.32470000
C      -45.55310000     -31.32280000     -73.46890000
C      -46.88640000     -30.87100000     -73.39440000
C      -47.86780000     -31.53480000     -74.11020000
C      -47.58010000     -32.57300000     -74.96700000
H      -45.95950000     -33.98640000     -75.54460000
H      -44.77860000     -30.88130000     -72.88320000
H      -48.84440000     -31.13140000     -74.13820000
H      -48.37060000     -33.11900000     -75.54260000
C      -47.30630000     -29.63090000     -72.52880000
H      -48.23760000     -29.14700000     -72.98750000
H      -46.54490000     -28.91320000     -72.53200000
C      -43.74760000     -32.63700000     -74.57530000
H      -43.50000000     -32.46930000     -75.65510000
H      -43.26730000     -31.89180000     -73.95990000
S      -47.77380000     -30.19510000     -70.85300000
S      -43.03600000     -34.37370000     -74.37950000
C      -46.28060000     -31.04530000     -70.13320000
H      -45.40860000     -30.50940000     -70.50870000
H      -46.47220000     -30.79580000     -69.11300000
C      -43.23420000     -34.77160000     -72.55150000
H      -42.88660000     -33.91230000     -72.05130000
H      -42.52330000     -35.59830000     -72.40920000
C      -44.70230000     -35.04480000     -72.13750000
H      -45.27080000     -34.12470000     -72.01070000
H      -45.28350000     -35.70350000     -72.71960000
C      -46.33040000     -32.52040000     -70.38980000
H      -45.93050000     -32.77390000     -71.37540000
H      -47.42720000     -32.76560000     -70.44270000
C      -45.60140000     -33.47930000     -69.36210000
C      -45.56310000     -33.11680000     -68.03070000
C      -44.83790000     -34.70420000     -69.51720000
H      -46.14940000     -32.24730000     -67.61260000
C      -44.50490000     -35.26940000     -68.31200000
C      -44.55440000     -35.49480000     -70.67570000
C      -43.89360000     -36.61290000     -70.31560000
S      -44.83270000     -34.27770000     -66.90570000
S      -43.79470000     -36.88590000     -68.54420000
H      -43.69200000     -37.41010000     -71.03220000
