40
Properties=species:S:1:pos:R:3 #=T CELL(abcABC):=T 1.889726e+02=T 90.00000=T Traj:=T positionsangstrom=T Step:=T 0=T Bead:=T pbc="F F F"
C      -47.81050000     -35.95960000     -70.70640000
C      -48.04920000     -35.12200000     -71.80460000
C      -48.31510000     -33.72560000     -71.59640000
C      -48.39490000     -33.24280000     -70.29280000
C      -48.09070000     -34.09340000     -69.19650000
C      -47.82840000     -35.43040000     -69.44320000
H      -47.75150000     -37.02460000     -70.85380000
H      -48.50550000     -33.04070000     -72.40140000
H      -48.20390000     -33.68380000     -68.15630000
H      -47.71200000     -36.10430000     -68.57490000
C      -48.82270000     -31.89400000     -69.91800000
H      -48.88800000     -31.60470000     -68.85710000
H      -49.74630000     -31.52050000     -70.28090000
C      -48.07730000     -35.66440000     -73.17260000
H      -47.63270000     -36.72640000     -73.08850000
H      -49.12990000     -35.74290000     -73.55880000
S      -47.65970000     -30.64060000     -70.87180000
S      -47.12400000     -34.69690000     -74.51620000
C      -46.05420000     -31.46030000     -70.34010000
H      -45.93990000     -31.26670000     -69.26940000
H      -46.12400000     -32.48610000     -70.49470000
C      -45.34820000     -34.83970000     -73.90190000
H      -44.85090000     -34.81130000     -74.88340000
H      -45.21500000     -35.84900000     -73.58780000
C      -45.01950000     -33.73840000     -72.86510000
H      -44.93160000     -32.77380000     -73.39310000
H      -45.77660000     -33.75430000     -72.03670000
C      -44.85280000     -30.86800000     -71.17110000
H      -44.76030000     -29.81180000     -70.97110000
H      -45.10460000     -30.90820000     -72.23060000
C      -43.45140000     -31.52240000     -70.90180000
C      -42.41610000     -30.99150000     -70.14970000
C      -43.09350000     -32.90140000     -71.23990000
H      -42.47040000     -30.00490000     -69.64590000
C      -41.83840000     -33.27250000     -70.64110000
C      -43.66330000     -33.97210000     -72.07200000
C      -42.97710000     -35.14110000     -71.88950000
S      -41.05390000     -32.03890000     -69.75170000
S      -41.53800000     -34.96590000     -70.79120000
H      -43.18670000     -36.05050000     -72.48100000
