40
Properties=species:S:1:pos:R:3 #=T CELL(abcABC):=T 1.889726e+02=T 90.00000=T Traj:=T positionsangstrom=T Step:=T 0=T Bead:=T pbc="F F F"
C      -46.14850000     -32.63530000     -75.35220000
C      -45.16830000     -32.00010000     -74.54260000
C      -45.55810000     -31.08670000     -73.54700000
C      -46.90930000     -30.82900000     -73.29480000
C      -47.86580000     -31.62560000     -73.90540000
C      -47.47580000     -32.46860000     -74.97300000
H      -45.81000000     -33.41860000     -76.05560000
H      -44.69930000     -30.60590000     -73.04150000
H      -48.92230000     -31.31530000     -73.69280000
H      -48.22470000     -32.99040000     -75.49250000
C      -47.27090000     -29.74540000     -72.34580000
H      -48.20490000     -29.32400000     -72.83660000
H      -46.62230000     -28.88670000     -72.27760000
C      -43.73100000     -32.31390000     -74.65570000
H      -43.29290000     -32.07380000     -75.65230000
H      -43.17380000     -31.73810000     -73.85330000
S      -47.71160000     -30.43530000     -70.63060000
S      -43.47390000     -34.10240000     -74.41650000
C      -46.05870000     -30.99880000     -69.95610000
H      -45.27980000     -30.32770000     -70.35860000
H      -46.16710000     -30.80070000     -68.88150000
C      -43.58540000     -34.37020000     -72.59810000
H      -43.70990000     -33.36900000     -72.10020000
H      -42.59440000     -34.76770000     -72.27660000
C      -44.77050000     -35.32270000     -72.14130000
H      -45.63400000     -34.73630000     -72.44980000
H      -44.90310000     -36.19310000     -72.76590000
C      -45.89030000     -32.50480000     -70.35560000
H      -45.44980000     -32.57700000     -71.36720000
H      -46.91190000     -32.97720000     -70.46300000
C      -45.16930000     -33.40540000     -69.33830000
C      -45.06820000     -33.06570000     -68.00040000
C      -44.77010000     -34.76020000     -69.59650000
H      -45.19170000     -32.14900000     -67.60110000
C      -44.41090000     -35.43240000     -68.39580000
C      -44.74500000     -35.68950000     -70.69820000
C      -44.43030000     -36.95680000     -70.35200000
S      -44.54350000     -34.43620000     -66.95060000
S      -44.07760000     -37.13850000     -68.61040000
H      -44.29880000     -37.79110000     -71.05350000
