40
Properties=species:S:1:pos:R:3 #=T CELL(abcABC):=T 1.889726e+02=T 90.00000=T Traj:=T positionsangstrom=T Step:=T 0=T Bead:=T pbc="F F F"
C      -45.12360000     -33.16540000     -69.02220000
C      -43.88420000     -33.83070000     -69.24630000
C      -43.90030000     -34.95650000     -69.96430000
C      -45.05870000     -35.70970000     -70.30580000
C      -46.28220000     -35.09930000     -69.93760000
C      -46.34200000     -33.81660000     -69.32780000
H      -45.20880000     -32.26520000     -68.35060000
H      -42.93440000     -35.46840000     -70.16630000
H      -47.20760000     -35.51680000     -70.30990000
H      -47.22220000     -33.36670000     -68.99330000
C      -44.97140000     -37.06520000     -70.92300000
H      -45.55190000     -37.86730000     -70.57040000
H      -43.94720000     -37.42660000     -70.96530000
C      -42.55550000     -33.11440000     -69.00260000
H      -42.26680000     -32.98040000     -67.94180000
H      -41.76990000     -33.76630000     -69.31840000
S      -45.35400000     -36.82260000     -72.69170000
S      -42.56970000     -31.46060000     -69.77420000
C      -44.25540000     -35.40440000     -73.08330000
H      -43.76110000     -34.84390000     -72.25260000
H      -43.43930000     -35.75680000     -73.74870000
C      -42.49910000     -31.92600000     -71.60940000
H      -42.71230000     -33.00340000     -71.70830000
H      -41.52300000     -31.60940000     -71.96260000
C      -43.58380000     -31.36790000     -72.61270000
H      -43.39360000     -30.29260000     -72.87490000
H      -43.46170000     -31.92370000     -73.62670000
C      -45.02600000     -34.35250000     -73.89650000
H      -45.48340000     -34.69270000     -74.81570000
H      -44.34960000     -33.54700000     -74.25970000
C      -46.12370000     -33.64740000     -73.14950000
C      -47.36340000     -34.16720000     -73.07070000
C      -45.99530000     -32.36770000     -72.42320000
H      -47.76780000     -35.08930000     -73.51190000
C      -47.26760000     -32.04770000     -71.83590000
C      -44.96200000     -31.45230000     -72.06380000
C      -45.48390000     -30.44830000     -71.18880000
S      -48.49270000     -33.18890000     -72.18040000
S      -47.21070000     -30.64810000     -70.73940000
H      -45.02690000     -29.62440000     -70.52300000
