40
Properties=species:S:1:pos:R:3 #=T CELL(abcABC):=T 1.889726e+02=T 90.00000=T Traj:=T positionsangstrom=T Step:=T 0=T Bead:=T pbc="F F F"
C      -46.05010000     -33.19590000     -74.94440000
C      -45.02350000     -32.32650000     -74.42100000
C      -45.41630000     -31.18700000     -73.62490000
C      -46.73450000     -30.88200000     -73.36270000
C      -47.70130000     -31.68000000     -73.97710000
C      -47.36040000     -32.77800000     -74.75060000
H      -45.82170000     -34.08950000     -75.46250000
H      -44.60570000     -30.52570000     -73.14250000
H      -48.76560000     -31.58540000     -73.74250000
H      -48.09510000     -33.36540000     -75.27330000
C      -47.10860000     -29.72500000     -72.50690000
H      -47.78950000     -29.02060000     -72.90550000
H      -46.20890000     -29.09170000     -72.21720000
C      -43.61840000     -32.66240000     -74.57080000
H      -43.11820000     -32.22050000     -75.43340000
H      -43.07810000     -32.16030000     -73.74690000
S      -47.82120000     -30.12030000     -70.83720000
S      -43.32500000     -34.48630000     -74.57390000
C      -46.48610000     -31.12130000     -69.99840000
H      -45.54400000     -30.63670000     -70.20260000
H      -46.60590000     -31.08500000     -68.93700000
C      -43.20720000     -34.70700000     -72.77290000
H      -42.80110000     -33.82050000     -72.21840000
H      -42.50830000     -35.52060000     -72.53510000
C      -44.57530000     -35.18420000     -72.14830000
H      -45.32150000     -34.46830000     -72.44150000
H      -44.85640000     -36.06140000     -72.75620000
C      -46.48210000     -32.55230000     -70.39590000
H      -45.99230000     -32.54880000     -71.33050000
H      -47.50940000     -32.83310000     -70.58330000
C      -45.72120000     -33.41480000     -69.38670000
C      -45.65290000     -33.05770000     -68.02610000
C      -44.99330000     -34.67160000     -69.56100000
H      -46.20070000     -32.24680000     -67.47470000
C      -44.65270000     -35.25490000     -68.28290000
C      -44.49010000     -35.44640000     -70.65430000
C      -43.90900000     -36.58380000     -70.20620000
S      -44.88500000     -34.23640000     -66.93870000
S      -43.73640000     -36.73110000     -68.45900000
H      -43.64230000     -37.35620000     -70.88280000
