40
Properties=species:S:1:pos:R:3 #=T CELL(abcABC):=T 1.889726e+02=T 90.00000=T Traj:=T positionsangstrom=T Step:=T 0=T Bead:=T pbc="F F F"
C      -46.17270000     -33.26290000     -75.16560000
C      -44.97070000     -32.75600000     -74.74880000
C      -45.00870000     -31.63960000     -73.91800000
C      -46.20960000     -31.17250000     -73.42600000
C      -47.42520000     -31.72760000     -73.82500000
C      -47.39450000     -32.77630000     -74.71750000
H      -46.21790000     -34.17340000     -75.75170000
H      -44.02530000     -31.20840000     -73.53180000
H      -48.40140000     -31.44870000     -73.43230000
H      -48.30610000     -33.17640000     -75.03240000
C      -46.32480000     -30.00640000     -72.43840000
H      -46.64770000     -29.14200000     -73.04120000
H      -45.30560000     -29.95440000     -71.96630000
C      -43.55750000     -33.15440000     -75.23050000
H      -43.51610000     -33.34820000     -76.30220000
H      -42.75640000     -32.50400000     -74.81410000
S      -47.63150000     -29.93620000     -71.06760000
S      -42.98670000     -34.75790000     -74.44250000
C      -47.02840000     -31.04860000     -69.67650000
H      -46.55210000     -30.53220000     -68.86780000
H      -47.95820000     -31.57750000     -69.26850000
C      -42.92260000     -34.38380000     -72.59820000
H      -42.55420000     -33.38930000     -72.43990000
H      -42.20700000     -35.03860000     -72.16320000
C      -44.35560000     -34.41630000     -71.89930000
H      -44.71860000     -33.39550000     -71.79800000
H      -45.09200000     -34.94150000     -72.49680000
C      -46.02040000     -32.13790000     -70.20290000
H      -45.01730000     -31.60920000     -70.37020000
H      -46.40070000     -32.55610000     -71.17140000
C      -45.72660000     -33.17030000     -69.12750000
C      -46.05400000     -33.01160000     -67.79930000
C      -44.93070000     -34.34300000     -69.40250000
H      -46.68710000     -32.23760000     -67.34200000
C      -44.93280000     -35.16290000     -68.30240000
C      -44.41610000     -35.05120000     -70.54080000
C      -44.04770000     -36.33240000     -70.30360000
S      -45.64160000     -34.48790000     -66.87900000
S      -44.21990000     -36.76680000     -68.53470000
H      -43.52150000     -36.93210000     -71.03900000
