40
Properties=species:S:1:pos:R:3 #=T CELL(abcABC):=T 1.889726e+02=T 90.00000=T Traj:=T positionsangstrom=T Step:=T 0=T Bead:=T pbc="F F F"
C      -45.91060000     -33.21760000     -75.19290000
C      -44.76770000     -32.69850000     -74.57150000
C      -44.94890000     -31.53740000     -73.72680000
C      -46.22580000     -31.04890000     -73.56550000
C      -47.33280000     -31.60500000     -74.20360000
C      -47.16560000     -32.70290000     -75.02150000
H      -45.74090000     -34.07460000     -75.83500000
H      -44.19260000     -31.03750000     -73.15210000
H      -48.30960000     -31.10010000     -73.97620000
H      -48.00440000     -33.21110000     -75.56390000
C      -46.45610000     -29.82920000     -72.68370000
H      -46.74730000     -29.02850000     -73.38060000
H      -45.52430000     -29.54320000     -72.20260000
C      -43.36310000     -33.21480000     -74.90780000
H      -43.19040000     -33.19320000     -76.03190000
H      -42.49520000     -32.63960000     -74.55000000
S      -47.69230000     -29.95690000     -71.31430000
S      -43.10550000     -35.03930000     -74.46860000
C      -46.68510000     -30.73860000     -69.88990000
H      -45.80380000     -30.10380000     -69.69450000
H      -47.35410000     -30.69870000     -69.09580000
C      -43.00000000     -34.80990000     -72.56320000
H      -42.38600000     -33.98900000     -72.40990000
H      -42.50080000     -35.72450000     -72.30540000
C      -44.34280000     -34.71440000     -71.87070000
H      -44.76560000     -33.70240000     -71.86500000
H      -45.02030000     -35.34990000     -72.42940000
C      -46.22550000     -32.15590000     -70.29040000
H      -45.35480000     -32.26800000     -70.94500000
H      -47.06190000     -32.68420000     -70.82030000
C      -45.92390000     -33.13230000     -69.14500000
C      -46.42130000     -33.09470000     -67.85720000
C      -45.05800000     -34.33960000     -69.33940000
H      -46.92640000     -32.24290000     -67.41040000
C      -44.93840000     -35.08070000     -68.13220000
C      -44.32550000     -35.03330000     -70.37900000
C      -43.78450000     -36.27650000     -70.05280000
S      -45.89740000     -34.42040000     -66.80180000
S      -44.05170000     -36.63860000     -68.26280000
H      -43.43000000     -37.04260000     -70.74830000
