40
Properties=species:S:1:pos:R:3 #=T CELL(abcABC):=T 1.889726e+02=T 90.00000=T Traj:=T positionsangstrom=T Step:=T 0=T Bead:=T pbc="F F F"
C      -46.04100000     -33.24120000     -74.90830000
C      -44.92500000     -32.51680000     -74.55090000
C      -45.08630000     -31.35940000     -73.77230000
C      -46.35860000     -31.00360000     -73.28330000
C      -47.44530000     -31.80010000     -73.67390000
C      -47.32140000     -32.90280000     -74.49000000
H      -45.91310000     -34.18100000     -75.51990000
H      -44.24240000     -30.81650000     -73.39280000
H      -48.49600000     -31.52000000     -73.59260000
H      -48.16170000     -33.53850000     -74.79320000
C      -46.45160000     -29.86720000     -72.32170000
H      -46.81360000     -28.95030000     -72.90830000
H      -45.49460000     -29.57260000     -71.95580000
C      -43.53680000     -32.89380000     -74.94330000
H      -43.51460000     -32.85290000     -76.07290000
H      -42.83300000     -32.11100000     -74.55770000
S      -47.71930000     -30.01780000     -71.02540000
S      -43.03360000     -34.64850000     -74.47270000
C      -46.90270000     -31.03210000     -69.63030000
H      -46.12360000     -30.48420000     -69.11390000
H      -47.71020000     -31.22650000     -68.96300000
C      -43.19090000     -34.58900000     -72.63250000
H      -42.81700000     -33.63660000     -72.34360000
H      -42.57490000     -35.30510000     -72.13530000
C      -44.61400000     -34.81490000     -72.15480000
H      -45.18810000     -33.90320000     -72.31980000
H      -45.02940000     -35.57910000     -72.80660000
C      -46.23870000     -32.27060000     -70.26070000
H      -45.36950000     -31.88240000     -70.86820000
H      -46.88200000     -32.72360000     -70.96170000
C      -45.83000000     -33.27310000     -69.24660000
C      -45.97350000     -33.06820000     -67.90690000
C      -45.24410000     -34.56520000     -69.54160000
H      -46.40380000     -32.19390000     -67.46480000
C      -44.81690000     -35.25720000     -68.40230000
C      -44.65130000     -35.25280000     -70.70320000
C      -44.09320000     -36.46080000     -70.38300000
S      -45.31490000     -34.34270000     -66.95030000
S      -43.91180000     -36.69140000     -68.67100000
H      -43.65090000     -37.25660000     -71.00290000
