40
Properties=species:S:1:pos:R:3 #=T CELL(abcABC):=T 1.889726e+02=T 90.00000=T Traj:=T positionsangstrom=T Step:=T 0=T Bead:=T pbc="F F F"
C      -45.57800000     -33.09140000     -75.33890000
C      -44.57440000     -32.61670000     -74.46130000
C      -44.86070000     -31.53960000     -73.61140000
C      -46.15410000     -30.95410000     -73.57970000
C      -47.10480000     -31.37590000     -74.50810000
C      -46.80370000     -32.44190000     -75.37630000
H      -45.18150000     -33.93500000     -75.95780000
H      -44.10750000     -31.16740000     -72.93090000
H      -48.01700000     -30.85470000     -74.47400000
H      -47.51160000     -32.83800000     -76.07130000
C      -46.43220000     -29.69240000     -72.77000000
H      -47.01170000     -28.94460000     -73.31520000
H      -45.55660000     -29.09390000     -72.57470000
C      -43.15970000     -33.26380000     -74.44840000
H      -42.57670000     -32.84850000     -75.26580000
H      -42.67590000     -32.92580000     -73.52040000
S      -47.37720000     -29.92120000     -71.28470000
S      -43.14670000     -35.09490000     -74.48110000
C      -46.34370000     -31.16530000     -70.31930000
H      -45.33400000     -30.98200000     -70.67850000
H      -46.40440000     -30.79500000     -69.29530000
C      -43.47620000     -35.69550000     -72.66410000
H      -42.55150000     -35.80730000     -72.07370000
H      -43.90120000     -36.65500000     -72.84670000
C      -44.42380000     -34.83990000     -71.87750000
H      -44.10740000     -33.79620000     -71.88430000
H      -45.40760000     -34.98520000     -72.24590000
C      -46.80960000     -32.60110000     -70.53510000
H      -46.41480000     -32.97440000     -71.46600000
H      -47.85630000     -32.65760000     -70.63750000
C      -46.39720000     -33.52040000     -69.33400000
C      -46.86200000     -33.20270000     -68.06450000
C      -45.40860000     -34.54130000     -69.31910000
H      -47.70810000     -32.68090000     -67.72880000
C      -45.11070000     -34.95200000     -68.02720000
C      -44.49770000     -35.24900000     -70.31120000
C      -43.75300000     -36.22630000     -69.70480000
S      -46.03740000     -34.13320000     -66.78980000
S      -43.84480000     -36.16010000     -67.94700000
H      -42.90310000     -36.69810000     -70.20530000
