40
Properties=species:S:1:pos:R:3 #=T CELL(abcABC):=T 1.889726e+02=T 90.00000=T Traj:=T positionsangstrom=T Step:=T 0=T Bead:=T pbc="F F F"
C      -45.75450000     -33.07580000     -75.88120000
C      -44.72230000     -33.00090000     -74.92780000
C      -44.72550000     -31.94350000     -74.00000000
C      -45.86200000     -31.12880000     -73.85940000
C      -46.79340000     -31.22730000     -74.83040000
C      -46.73770000     -32.14290000     -75.82300000
H      -45.77440000     -33.95400000     -76.60660000
H      -43.84990000     -31.75220000     -73.42840000
H      -47.67910000     -30.63430000     -74.74750000
H      -47.51810000     -32.26460000     -76.50370000
C      -45.84430000     -30.03690000     -72.78220000
H      -46.08820000     -29.00060000     -73.20870000
H      -44.86430000     -29.90650000     -72.36030000
C      -43.46450000     -33.81700000     -75.11720000
H      -43.40200000     -34.18700000     -76.15800000
H      -42.54750000     -33.26710000     -74.85320000
S      -47.07360000     -30.13230000     -71.43910000
S      -43.68970000     -35.34500000     -74.07940000
C      -46.29830000     -31.40450000     -70.26790000
H      -45.21140000     -31.31670000     -70.51020000
H      -46.41410000     -30.92590000     -69.27220000
C      -43.19740000     -34.68170000     -72.44660000
H      -42.55320000     -33.88170000     -72.68240000
H      -42.60200000     -35.41840000     -71.98510000
C      -44.39360000     -34.28470000     -71.57500000
H      -44.56840000     -33.20660000     -71.77360000
H      -45.33580000     -34.74380000     -71.88800000
C      -46.95400000     -32.72530000     -70.32410000
H      -46.63720000     -33.25090000     -71.17740000
H      -48.04960000     -32.68990000     -70.31460000
C      -46.53590000     -33.52400000     -69.14660000
C      -47.09920000     -33.42900000     -67.90260000
C      -45.36500000     -34.29430000     -69.11970000
H      -47.90490000     -32.80940000     -67.57930000
C      -45.19620000     -34.92440000     -67.85960000
C      -44.34450000     -34.67160000     -70.08830000
C      -43.42900000     -35.49530000     -69.50970000
S      -46.33270000     -34.46290000     -66.67600000
S      -43.74790000     -35.84910000     -67.79740000
H      -42.60610000     -35.99870000     -69.94710000
