40
Properties=species:S:1:pos:R:3 #=T CELL(abcABC):=T 1.889726e+02=T 90.00000=T Traj:=T positionsangstrom=T Step:=T 0=T Bead:=T pbc="F F F"
C      -45.84770000     -33.86440000     -75.36410000
C      -44.74570000     -33.14930000     -74.79370000
C      -44.93270000     -31.91840000     -74.15700000
C      -46.17270000     -31.26490000     -74.10770000
C      -47.24580000     -32.05840000     -74.63430000
C      -47.14930000     -33.32010000     -75.23400000
H      -45.76410000     -34.79210000     -75.95590000
H      -44.01240000     -31.39430000     -73.99010000
H      -48.29720000     -31.61660000     -74.65120000
H      -47.99320000     -33.86880000     -75.67910000
C      -46.35320000     -29.93930000     -73.50090000
H      -46.86140000     -29.10830000     -74.10210000
H      -45.43440000     -29.49850000     -73.22930000
C      -43.38790000     -33.77830000     -74.82120000
H      -43.07960000     -33.97500000     -75.87200000
H      -42.61200000     -33.20780000     -74.36060000
S      -47.40660000     -30.17760000     -71.89970000
S      -43.14620000     -35.44630000     -73.92210000
C      -46.42990000     -31.12160000     -70.67330000
H      -45.38980000     -31.25930000     -71.13940000
H      -46.34930000     -30.48610000     -69.78250000
C      -42.86380000     -35.02900000     -72.15970000
H      -41.90150000     -34.44880000     -71.98630000
H      -42.78750000     -35.97590000     -71.71550000
C      -43.98450000     -34.21750000     -71.48410000
H      -43.88280000     -33.14990000     -71.65480000
H      -44.91910000     -34.37590000     -72.06630000
C      -47.04040000     -32.54930000     -70.45580000
H      -46.88230000     -33.12580000     -71.37450000
H      -48.14520000     -32.44030000     -70.36630000
C      -46.49980000     -33.30170000     -69.26660000
C      -47.20530000     -33.30130000     -68.06120000
C      -45.19890000     -33.96310000     -69.11410000
H      -48.17020000     -32.91050000     -67.97920000
C      -45.03000000     -34.51070000     -67.83970000
C      -44.13350000     -34.49850000     -69.95950000
C      -43.15060000     -35.23860000     -69.28380000
S      -46.39250000     -34.20530000     -66.77420000
S      -43.61850000     -35.44160000     -67.58280000
H      -42.23380000     -35.57660000     -69.70380000
