40
Properties=species:S:1:pos:R:3 #=T CELL(abcABC):=T 1.889726e+02=T 90.00000=T Traj:=T positionsangstrom=T Step:=T 0=T Bead:=T pbc="F F F"
C      -46.04900000     -34.15470000     -69.02760000
C      -46.77840000     -34.83690000     -70.00140000
C      -46.11230000     -35.62980000     -70.94230000
C      -44.70290000     -35.69160000     -70.95110000
C      -44.00320000     -35.16480000     -69.81500000
C      -44.70820000     -34.45000000     -68.87050000
H      -46.61040000     -33.42760000     -68.47060000
H      -46.60830000     -36.16900000     -71.79590000
H      -42.91670000     -35.19150000     -69.76590000
H      -44.07610000     -34.02260000     -68.10340000
C      -43.94640000     -36.60610000     -71.97110000
H      -44.05770000     -37.61810000     -71.71920000
H      -42.88330000     -36.37220000     -71.97820000
C      -48.32000000     -34.55940000     -70.01180000
H      -48.88340000     -35.00730000     -70.86650000
H      -48.81080000     -34.96840000     -69.19610000
S      -44.54360000     -36.46660000     -73.68920000
S      -48.68870000     -32.74330000     -69.89890000
C      -43.93320000     -34.86180000     -74.38560000
H      -42.85170000     -34.81910000     -74.30130000
H      -44.18650000     -35.03730000     -75.43440000
C      -48.76680000     -32.36340000     -71.79460000
H      -49.30770000     -31.36980000     -71.77670000
H      -49.29250000     -33.15670000     -72.31550000
C      -47.40570000     -32.05230000     -72.51160000
H      -47.22640000     -32.86890000     -73.19590000
H      -47.77280000     -31.24450000     -73.16170000
C      -44.65180000     -33.57890000     -74.00890000
H      -45.74480000     -33.98100000     -73.71120000
H      -44.71470000     -32.81760000     -74.81560000
C      -44.00910000     -32.89730000     -72.71980000
C      -42.70070000     -32.98980000     -72.37240000
C      -44.81770000     -32.04320000     -71.84450000
H      -41.95740000     -33.63820000     -72.86300000
C      -43.93510000     -31.36310000     -70.98740000
C      -46.21480000     -31.58730000     -71.70690000
C      -46.30660000     -30.70040000     -70.68220000
S      -42.24830000     -31.96420000     -70.91510000
S      -44.75850000     -30.25750000     -69.90830000
H      -47.26310000     -30.27390000     -70.28700000
