40
Properties=species:S:1:pos:R:3 #=T CELL(abcABC):=T 1.889726e+02=T 90.00000=T Traj:=T positionsangstrom=T Step:=T 0=T Bead:=T pbc="F F F"
C      -45.78880000     -37.05720000     -69.23340000
C      -46.21390000     -35.74870000     -68.86620000
C      -47.18700000     -35.00220000     -69.55000000
C      -47.71780000     -35.54240000     -70.74330000
C      -47.28600000     -36.83400000     -71.16160000
C      -46.32880000     -37.59350000     -70.37230000
H      -44.98690000     -37.52770000     -68.68720000
H      -47.51910000     -34.05370000     -69.33900000
H      -47.74060000     -37.33860000     -72.00440000
H      -46.09350000     -38.66530000     -70.66150000
C      -48.75870000     -34.74830000     -71.55970000
H      -49.72840000     -35.01670000     -71.15340000
H      -48.76800000     -35.01730000     -72.61340000
C      -45.50350000     -35.05690000     -67.69050000
H      -46.09930000     -35.01990000     -66.77540000
H      -44.52260000     -35.45990000     -67.41150000
S      -48.74080000     -32.94750000     -71.35610000
S      -45.25350000     -33.22770000     -67.80590000
C      -47.39480000     -32.35810000     -72.48260000
H      -46.89300000     -33.21010000     -72.97020000
H      -47.90610000     -31.79060000     -73.32110000
C      -43.98130000     -32.99490000     -69.18450000
H      -42.92830000     -33.14050000     -68.85290000
H      -44.01040000     -31.92170000     -69.47660000
C      -44.26230000     -33.81750000     -70.48420000
H      -43.92980000     -34.80580000     -70.35780000
H      -45.29030000     -33.84420000     -70.79880000
C      -46.36220000     -31.55110000     -71.68140000
H      -46.03530000     -32.07690000     -70.72490000
H      -46.74750000     -30.64170000     -71.25350000
C      -45.20350000     -31.32860000     -72.57460000
C      -45.07810000     -30.36720000     -73.55380000
C      -44.06020000     -32.17160000     -72.51670000
H      -45.84540000     -29.53760000     -73.79120000
C      -43.12560000     -31.86570000     -73.56380000
C      -43.45560000     -33.21360000     -71.69070000
C      -42.21890000     -33.57190000     -72.12150000
S      -43.58990000     -30.46650000     -74.52640000
S      -41.64870000     -32.76410000     -73.50060000
H      -41.56720000     -34.29390000     -71.62560000
