40
Properties=species:S:1:pos:R:3 #=T CELL(abcABC):=T 1.889726e+02=T 90.00000=T Traj:=T positionsangstrom=T Step:=T 0=T Bead:=T pbc="F F F"
C      -44.45050000     -33.53990000     -66.94080000
C      -45.57640000     -33.38140000     -67.79330000
C      -45.69660000     -32.20320000     -68.56780000
C      -44.68450000     -31.24810000     -68.74240000
C      -43.57890000     -31.41860000     -67.83400000
C      -43.42050000     -32.52530000     -67.02960000
H      -44.37110000     -34.36500000     -66.32660000
H      -46.56190000     -31.98780000     -69.31420000
H      -42.75430000     -30.76310000     -67.89370000
H      -42.54360000     -32.69200000     -66.35080000
C      -44.90240000     -30.02840000     -69.57570000
H      -44.31040000     -29.20640000     -69.16400000
H      -45.97730000     -29.78050000     -69.49730000
C      -46.62790000     -34.48040000     -67.84540000
H      -46.24680000     -35.35030000     -67.44000000
H      -47.49340000     -34.21420000     -67.40230000
S      -44.51200000     -30.38920000     -71.30360000
S      -47.09340000     -34.99100000     -69.60100000
C      -43.75500000     -32.06900000     -71.16090000
H      -42.99480000     -31.88800000     -70.40240000
H      -44.51700000     -32.79880000     -70.69680000
C      -45.51390000     -36.10830000     -70.03010000
H      -45.78850000     -37.10450000     -70.52630000
H      -44.88000000     -36.29850000     -69.12040000
C      -44.67440000     -35.41790000     -71.04970000
H      -44.09100000     -34.67350000     -70.56820000
H      -43.88160000     -36.08040000     -71.30570000
C      -43.19130000     -32.65940000     -72.49120000
H      -42.59710000     -33.50440000     -72.17390000
H      -42.42290000     -32.01230000     -72.89910000
C      -44.21520000     -33.04620000     -73.54230000
C      -44.49720000     -32.24180000     -74.66390000
C      -45.18180000     -34.14760000     -73.37410000
H      -43.95350000     -31.37700000     -75.06210000
C      -46.04590000     -34.23140000     -74.48310000
C      -45.37890000     -35.12390000     -72.36670000
C      -46.47390000     -35.91970000     -72.73010000
S      -45.74460000     -33.00450000     -75.70140000
S      -47.16440000     -35.54940000     -74.30920000
H      -46.93350000     -36.67260000     -72.10480000
