40
Properties=species:S:1:pos:R:3 #=T CELL(abcABC):=T 1.889726e+02=T 90.00000=T Traj:=T positionsangstrom=T Step:=T 0=T Bead:=T pbc="F F F"
C      -47.71090000     -35.92810000     -70.81120000
C      -48.14420000     -35.09350000     -71.87900000
C      -48.47130000     -33.75400000     -71.64460000
C      -48.38910000     -33.23730000     -70.30310000
C      -47.91070000     -34.08950000     -69.25480000
C      -47.61010000     -35.45270000     -69.50000000
H      -47.50780000     -36.97050000     -71.12540000
H      -48.76130000     -33.30570000     -72.51860000
H      -47.67800000     -33.74150000     -68.23560000
H      -47.14770000     -35.96760000     -68.73590000
C      -48.75570000     -31.79420000     -70.03950000
H      -48.83890000     -31.70480000     -68.96050000
H      -49.74110000     -31.56980000     -70.45360000
C      -48.28420000     -35.62680000     -73.26970000
H      -47.93340000     -36.67960000     -73.32880000
H      -49.32490000     -35.61920000     -73.62860000
S      -47.54300000     -30.64390000     -70.87790000
S      -47.18560000     -34.72100000     -74.42780000
C      -45.84730000     -31.13640000     -70.17360000
H      -45.73240000     -30.60870000     -69.24300000
H      -46.06510000     -32.17060000     -69.98820000
C      -45.65040000     -34.87900000     -73.41250000
H      -44.80920000     -35.22130000     -73.99290000
H      -45.78260000     -35.61730000     -72.62610000
C      -45.04050000     -33.64160000     -72.72460000
H      -44.97260000     -32.70880000     -73.37010000
H      -45.72300000     -33.29330000     -71.98600000
C      -44.63820000     -30.78100000     -71.08130000
H      -44.31460000     -29.76070000     -70.91820000
H      -44.84720000     -30.86130000     -72.16370000
C      -43.50170000     -31.64710000     -70.71010000
C      -42.70520000     -31.21360000     -69.68190000
C      -43.05250000     -32.95320000     -71.19800000
H      -42.91660000     -30.28680000     -69.12410000
C      -41.89740000     -33.45610000     -70.58810000
C      -43.62200000     -33.82210000     -72.16180000
C      -42.86370000     -34.93540000     -72.35010000
S      -41.33550000     -32.28310000     -69.43630000
S      -41.34030000     -34.88700000     -71.42400000
H      -43.01390000     -35.68980000     -73.06930000
