40
Properties=species:S:1:pos:R:3 #=T CELL(abcABC):=T 1.889726e+02=T 90.00000=T Traj:=T positionsangstrom=T Step:=T 0=T Bead:=T pbc="F F F"
C      -46.17720000     -34.40860000     -75.69710000
C      -45.15160000     -33.87590000     -74.91030000
C      -45.39520000     -32.66960000     -74.21940000
C      -46.65380000     -32.08000000     -74.34250000
C      -47.74210000     -32.72940000     -74.96770000
C      -47.50210000     -33.93200000     -75.69070000
H      -45.98750000     -35.30250000     -76.28330000
H      -44.63040000     -32.08030000     -73.78810000
H      -48.60760000     -32.16640000     -75.06250000
H      -48.32290000     -34.27880000     -76.32290000
C      -46.96200000     -30.72000000     -73.81870000
H      -47.54480000     -30.19590000     -74.65390000
H      -46.09700000     -30.25420000     -73.42170000
C      -43.77970000     -34.42680000     -74.92370000
H      -43.69520000     -34.98160000     -75.91460000
H      -43.04960000     -33.55020000     -74.85070000
S      -48.01850000     -30.66210000     -72.21300000
S      -43.30950000     -35.71350000     -73.65190000
C      -46.90880000     -31.04690000     -70.80140000
H      -45.85760000     -30.84030000     -70.97370000
H      -47.22720000     -30.33850000     -70.02310000
C      -42.78020000     -34.66790000     -72.20780000
H      -42.05880000     -33.92260000     -72.48290000
H      -42.25940000     -35.42710000     -71.61850000
C      -44.02320000     -34.20580000     -71.45650000
H      -44.17930000     -33.07270000     -71.68520000
H      -44.90580000     -34.79590000     -71.77250000
C      -46.94090000     -32.44220000     -70.26550000
H      -46.55960000     -33.10810000     -71.02190000
H      -47.91630000     -32.82280000     -69.87280000
C      -46.00660000     -32.68380000     -68.98140000
C      -46.50600000     -32.33300000     -67.74590000
C      -44.79280000     -33.58440000     -68.95090000
H      -47.55480000     -31.95450000     -67.69980000
C      -44.46530000     -33.88750000     -67.63160000
C      -43.95230000     -34.32230000     -69.89270000
C      -43.02230000     -35.12400000     -69.23340000
S      -45.45300000     -32.99690000     -66.46720000
S      -43.13490000     -34.99060000     -67.48660000
H      -42.31240000     -35.77870000     -69.76930000
