40
Properties=species:S:1:pos:R:3 #=T CELL(abcABC):=T 1.889726e+02=T 90.00000=T Traj:=T positionsangstrom=T Step:=T 0=T Bead:=T pbc="F F F"
C      -44.74890000     -33.46140000     -67.11860000
C      -45.81750000     -33.61360000     -68.05060000
C      -46.11620000     -32.48790000     -68.86780000
C      -45.28540000     -31.37330000     -68.89930000
C      -44.30810000     -31.22840000     -67.96430000
C      -43.96620000     -32.32990000     -67.16380000
H      -44.39700000     -34.26900000     -66.47140000
H      -46.98650000     -32.57470000     -69.60340000
H      -43.80960000     -30.26840000     -67.83660000
H      -43.31090000     -32.28570000     -66.37740000
C      -45.64810000     -30.32040000     -69.95070000
H      -45.35930000     -29.32890000     -69.58020000
H      -46.74200000     -30.32520000     -70.15100000
C      -46.86480000     -34.72930000     -67.94880000
H      -46.80540000     -35.46390000     -67.19500000
H      -47.85170000     -34.29220000     -67.70050000
S      -44.80400000     -30.69740000     -71.57560000
S      -47.10840000     -35.48190000     -69.62330000
C      -43.35540000     -31.80130000     -71.16150000
H      -42.58200000     -31.20600000     -70.56120000
H      -43.83790000     -32.50410000     -70.44350000
C      -45.28320000     -36.12850000     -69.86940000
H      -45.25730000     -37.21170000     -70.06860000
H      -44.73240000     -36.08870000     -68.91570000
C      -44.54700000     -35.26550000     -70.83290000
H      -44.12720000     -34.34130000     -70.30470000
H      -43.53070000     -35.82450000     -71.18630000
C      -42.74030000     -32.41910000     -72.42190000
H      -42.10940000     -33.23970000     -72.09430000
H      -42.10110000     -31.68080000     -72.90890000
C      -43.90670000     -32.90900000     -73.33930000
C      -44.11490000     -32.15380000     -74.48730000
C      -44.85390000     -33.94860000     -73.10740000
H      -43.26160000     -31.61640000     -74.97890000
C      -45.68730000     -34.00230000     -74.22480000
C      -45.26400000     -34.95710000     -72.15580000
C      -46.15510000     -35.85000000     -72.70720000
S      -45.43940000     -32.76020000     -75.44930000
S      -46.83600000     -35.34320000     -74.23400000
H      -46.39650000     -36.82310000     -72.32120000
