40
Properties=species:S:1:pos:R:3 #=T CELL(abcABC):=T 1.889726e+02=T 90.00000=T Traj:=T positionsangstrom=T Step:=T 0=T Bead:=T pbc="F F F"
C      -47.70710000     -35.85660000     -70.82330000
C      -48.18190000     -35.03460000     -71.83850000
C      -48.68820000     -33.75580000     -71.58140000
C      -48.53800000     -33.20130000     -70.30950000
C      -47.91930000     -33.97570000     -69.25620000
C      -47.63580000     -35.34240000     -69.54780000
H      -47.44830000     -36.86680000     -71.18330000
H      -49.12630000     -33.25940000     -72.38220000
H      -47.72250000     -33.70680000     -68.24810000
H      -47.36420000     -36.05020000     -68.74630000
C      -48.88120000     -31.72250000     -70.07960000
H      -49.08910000     -31.67400000     -68.99540000
H      -49.73460000     -31.35820000     -70.66190000
C      -48.23190000     -35.54480000     -73.21710000
H      -47.90960000     -36.63000000     -73.28970000
H      -49.24840000     -35.46030000     -73.66010000
S      -47.50700000     -30.53830000     -70.63760000
S      -47.11640000     -34.59420000     -74.36860000
C      -46.03300000     -31.59330000     -70.31020000
H      -45.86030000     -31.63730000     -69.24200000
H      -46.18050000     -32.60850000     -70.74150000
C      -45.36600000     -35.03620000     -73.72970000
H      -44.76340000     -35.32870000     -74.63700000
H      -45.41730000     -35.92170000     -73.08670000
C      -44.97720000     -33.81960000     -72.96960000
H      -44.83130000     -33.10790000     -73.82040000
H      -45.76400000     -33.35010000     -72.41120000
C      -44.77650000     -30.95790000     -70.96750000
H      -44.85140000     -29.88290000     -70.66290000
H      -44.93530000     -30.95530000     -72.03900000
C      -43.47990000     -31.62150000     -70.63650000
C      -42.56930000     -31.19180000     -69.68560000
C      -43.12010000     -32.92640000     -71.18820000
H      -42.73300000     -30.19890000     -69.26110000
C      -41.90600000     -33.38920000     -70.67300000
C      -43.61530000     -33.86410000     -72.18460000
C      -42.78590000     -34.93840000     -72.38290000
S      -41.26510000     -32.29870000     -69.45020000
S      -41.37050000     -34.91530000     -71.40350000
H      -42.97680000     -35.83620000     -73.01870000
