40
Properties=species:S:1:pos:R:3 #=T CELL(abcABC):=T 1.889726e+02=T 90.00000=T Traj:=T positionsangstrom=T Step:=T 0=T Bead:=T pbc="F F F"
C      -43.71920000     -33.53760000     -69.05430000
C      -43.11890000     -33.35240000     -70.31380000
C      -43.21480000     -34.40280000     -71.26990000
C      -43.95480000     -35.56630000     -71.02940000
C      -44.56060000     -35.67160000     -69.74140000
C      -44.51270000     -34.67820000     -68.77390000
H      -43.56630000     -32.81740000     -68.29810000
H      -42.67240000     -34.26590000     -72.28650000
H      -45.19460000     -36.50910000     -69.47250000
H      -44.99200000     -34.75660000     -67.84710000
C      -43.97230000     -36.66340000     -72.05580000
H      -43.84680000     -37.64440000     -71.56570000
H      -43.17650000     -36.60670000     -72.83990000
C      -42.05550000     -32.33780000     -70.61910000
H      -41.52940000     -31.93280000     -69.71980000
H      -41.26360000     -32.81350000     -71.28090000
S      -45.48620000     -36.60640000     -73.17710000
S      -42.77660000     -30.81050000     -71.50450000
C      -45.50480000     -34.89020000     -73.86850000
H      -44.75450000     -34.21290000     -73.35720000
H      -45.19500000     -34.97020000     -75.01870000
C      -43.59180000     -31.44210000     -73.06130000
H      -43.42360000     -32.48940000     -72.95460000
H      -42.96310000     -31.21140000     -73.90480000
C      -45.16500000     -31.08240000     -73.18870000
H      -45.28080000     -29.98340000     -73.40860000
H      -45.47380000     -31.67830000     -74.04570000
C      -46.83620000     -34.18200000     -73.73560000
H      -47.61120000     -34.85550000     -74.09450000
H      -46.71800000     -33.25690000     -74.40240000
C      -47.13730000     -33.82470000     -72.29840000
C      -47.74650000     -34.74160000     -71.43380000
C      -46.75120000     -32.57570000     -71.66400000
H      -48.42090000     -35.52470000     -71.87060000
C      -47.28100000     -32.56140000     -70.34000000
C      -46.01010000     -31.40220000     -71.93930000
C      -46.08720000     -30.41950000     -70.93340000
S      -48.10750000     -33.97560000     -69.90240000
S      -46.90770000     -31.08300000     -69.44530000
H      -45.59020000     -29.44620000     -71.01970000
