40
Properties=species:S:1:pos:R:3 #=T CELL(abcABC):=T 1.889726e+02=T 90.00000=T Traj:=T positionsangstrom=T Step:=T 0=T Bead:=T pbc="F F F"
C      -43.20780000     -33.13900000     -69.80040000
C      -42.64070000     -33.29420000     -71.10690000
C      -42.92840000     -34.37520000     -71.89930000
C      -43.80570000     -35.41000000     -71.41970000
C      -44.35420000     -35.19470000     -70.11990000
C      -44.12500000     -34.03120000     -69.33290000
H      -43.03640000     -32.13610000     -69.39190000
H      -42.39960000     -34.56940000     -72.88710000
H      -45.00850000     -35.98210000     -69.75470000
H      -44.62080000     -34.01800000     -68.33860000
C      -44.14470000     -36.60510000     -72.17030000
H      -44.11280000     -37.54020000     -71.54800000
H      -43.47880000     -36.68950000     -72.95780000
C      -41.66670000     -32.26990000     -71.63350000
H      -40.92090000     -31.86910000     -70.93480000
H      -41.01180000     -32.68290000     -72.41910000
S      -45.91340000     -36.60100000     -72.88660000
S      -42.65430000     -30.84790000     -72.26540000
C      -46.06540000     -34.94610000     -73.61030000
H      -45.31680000     -34.21560000     -73.29870000
H      -45.96380000     -35.01890000     -74.62390000
C      -44.01010000     -31.76190000     -73.25950000
H      -43.98710000     -32.92360000     -73.13880000
H      -43.70830000     -31.51740000     -74.29690000
C      -45.45280000     -31.34390000     -72.98180000
H      -45.57320000     -30.28650000     -73.19420000
H      -45.96900000     -31.82340000     -73.79630000
C      -47.45950000     -34.25780000     -73.31270000
H      -48.30640000     -34.94260000     -73.56480000
H      -47.62380000     -33.37130000     -73.95700000
C      -47.53620000     -33.78650000     -71.86170000
C      -48.34550000     -34.43560000     -70.99330000
C      -46.84160000     -32.67490000     -71.19700000
H      -48.89450000     -35.30560000     -71.16880000
C      -47.20950000     -32.60180000     -69.86680000
C      -45.88290000     -31.59500000     -71.57210000
C      -45.53760000     -30.82720000     -70.46630000
S      -48.28680000     -33.88800000     -69.32400000
S      -46.32710000     -31.43680000     -69.00020000
H      -44.87620000     -29.90900000     -70.41320000
