40
Properties=species:S:1:pos:R:3 #=T CELL(abcABC):=T 1.889726e+02=T 90.00000=T Traj:=T positionsangstrom=T Step:=T 0=T Bead:=T pbc="F F F"
C      -43.59080000     -33.29540000     -69.53600000
C      -42.78090000     -33.48340000     -70.73690000
C      -43.05730000     -34.56100000     -71.54410000
C      -43.98010000     -35.59250000     -71.18230000
C      -44.72290000     -35.36140000     -70.02780000
C      -44.51080000     -34.24090000     -69.17620000
H      -43.43160000     -32.47880000     -68.85720000
H      -42.54680000     -34.71410000     -72.52080000
H      -45.40760000     -36.14310000     -69.68080000
H      -45.13250000     -33.94950000     -68.33350000
C      -44.21420000     -36.76550000     -72.16720000
H      -44.51930000     -37.71990000     -71.69660000
H      -43.33350000     -36.87580000     -72.85740000
C      -41.74100000     -32.45930000     -71.15930000
H      -41.10060000     -32.24440000     -70.30520000
H      -41.13720000     -32.77850000     -72.00310000
S      -45.78120000     -36.49360000     -73.21340000
S      -42.56130000     -30.89330000     -71.67480000
C      -45.42760000     -34.81840000     -73.84560000
H      -44.63380000     -34.41910000     -73.36800000
H      -45.13660000     -34.82950000     -74.90830000
C      -43.73540000     -31.52100000     -72.96350000
H      -43.75360000     -32.64670000     -72.91730000
H      -43.45180000     -31.02150000     -73.92570000
C      -45.20380000     -30.96110000     -72.78700000
H      -45.03550000     -29.89000000     -72.69410000
H      -45.78620000     -31.05550000     -73.74140000
C      -46.68880000     -33.92320000     -73.59790000
H      -47.47900000     -34.31130000     -74.13120000
H      -46.42930000     -32.89490000     -73.93590000
C      -47.10040000     -33.73700000     -72.11450000
C      -47.88150000     -34.64960000     -71.45210000
C      -46.58520000     -32.71790000     -71.30460000
H      -48.25250000     -35.46270000     -71.97050000
C      -47.20480000     -32.72510000     -70.02300000
C      -45.90950000     -31.42570000     -71.53910000
C      -45.99730000     -30.59610000     -70.44120000
S      -48.30070000     -34.07070000     -69.83210000
S      -46.95290000     -31.26490000     -69.17940000
H      -45.56620000     -29.60820000     -70.35180000
