40
Properties=species:S:1:pos:R:3 #=T CELL(abcABC):=T 1.889726e+02=T 90.00000=T Traj:=T positionsangstrom=T Step:=T 0=T Bead:=T pbc="F F F"
C      -43.68600000     -33.35980000     -69.51790000
C      -42.84870000     -33.51630000     -70.65770000
C      -42.98250000     -34.69710000     -71.39410000
C      -43.95400000     -35.65960000     -71.10870000
C      -44.83290000     -35.42880000     -70.08680000
C      -44.68190000     -34.28090000     -69.32960000
H      -43.65060000     -32.54180000     -68.78780000
H      -42.18780000     -34.88020000     -72.11250000
H      -45.54570000     -36.21300000     -69.86160000
H      -45.34710000     -34.06820000     -68.46540000
C      -44.01980000     -36.83170000     -72.02800000
H      -44.23550000     -37.89900000     -71.68880000
H      -43.12540000     -36.91030000     -72.52200000
C      -41.88500000     -32.43540000     -70.90340000
H      -41.34030000     -32.20950000     -70.02570000
H      -41.12330000     -32.81460000     -71.61250000
S      -45.60910000     -36.62880000     -73.16190000
S      -42.64410000     -30.88770000     -71.63830000
C      -45.45420000     -34.87820000     -73.90520000
H      -44.49120000     -34.47830000     -73.50550000
H      -45.30710000     -35.04530000     -75.00920000
C      -43.82790000     -31.53760000     -72.96630000
H      -43.89820000     -32.67470000     -72.61380000
H      -43.43880000     -31.48980000     -73.98020000
C      -45.20030000     -30.84840000     -72.77530000
H      -45.08750000     -29.75900000     -72.76880000
H      -45.79000000     -31.09970000     -73.66660000
C      -46.68880000     -33.92740000     -73.75390000
H      -47.45500000     -34.35510000     -74.31440000
H      -46.45870000     -32.92810000     -74.25730000
C      -47.09520000     -33.63520000     -72.29320000
C      -47.78790000     -34.57570000     -71.56370000
C      -46.82460000     -32.44300000     -71.48920000
H      -48.27670000     -35.40240000     -72.05320000
C      -47.34640000     -32.55690000     -70.21630000
C      -46.01590000     -31.24760000     -71.56630000
C      -45.92390000     -30.53040000     -70.40660000
S      -48.13290000     -34.08450000     -69.86780000
S      -46.94100000     -31.24540000     -69.11490000
H      -45.30510000     -29.63430000     -70.33760000
