40
Properties=species:S:1:pos:R:3 #=T CELL(abcABC):=T 1.889726e+02=T 90.00000=T Traj:=T positionsangstrom=T Step:=T 0=T Bead:=T pbc="F F F"
C      -43.33510000     -33.33550000     -69.57360000
C      -42.72740000     -33.51740000     -70.84210000
C      -43.00710000     -34.66160000     -71.53850000
C      -44.05180000     -35.53620000     -71.19740000
C      -44.68050000     -35.32310000     -69.94770000
C      -44.26870000     -34.27780000     -69.09550000
H      -42.94410000     -32.48760000     -69.08240000
H      -42.50990000     -34.78100000     -72.46810000
H      -45.49620000     -36.04320000     -69.63200000
H      -44.85620000     -34.03640000     -68.18160000
C      -44.34080000     -36.67500000     -72.10510000
H      -44.51190000     -37.71510000     -71.56090000
H      -43.60750000     -36.84280000     -72.82620000
C      -41.77810000     -32.45460000     -71.45420000
H      -41.06710000     -32.10430000     -70.67890000
H      -41.23930000     -32.83370000     -72.38240000
S      -45.91500000     -36.48080000     -72.99960000
S      -42.81230000     -30.88950000     -71.73510000
C      -45.67980000     -34.78270000     -73.96740000
H      -44.71630000     -34.36040000     -73.50370000
H      -45.52860000     -34.92470000     -75.01770000
C      -43.98700000     -31.41310000     -73.11120000
H      -43.90290000     -32.48980000     -73.22470000
H      -43.59120000     -30.93690000     -73.93370000
C      -45.33790000     -30.85230000     -72.76250000
H      -45.34290000     -29.79230000     -72.83840000
H      -45.99030000     -31.09420000     -73.62960000
C      -46.88590000     -33.92130000     -73.70950000
H      -47.72750000     -34.42770000     -74.09930000
H      -46.79120000     -33.05370000     -74.32170000
C      -47.15510000     -33.57480000     -72.23920000
C      -47.95660000     -34.43950000     -71.61040000
C      -46.62080000     -32.57160000     -71.30650000
H      -48.50840000     -35.32320000     -72.02290000
C      -47.02140000     -32.84360000     -70.03850000
C      -45.92210000     -31.33100000     -71.48110000
C      -45.87850000     -30.58960000     -70.36230000
S      -48.15370000     -34.13970000     -69.86030000
S      -46.55210000     -31.49240000     -68.98260000
H      -45.37890000     -29.64270000     -70.17970000
