40
Properties=species:S:1:pos:R:3 #=T CELL(abcABC):=T 1.889726e+02=T 90.00000=T Traj:=T positionsangstrom=T Step:=T 0=T Bead:=T pbc="F F F"
C      -43.09560000     -33.25810000     -69.66400000
C      -42.58810000     -33.37100000     -70.94260000
C      -42.88570000     -34.49560000     -71.67440000
C      -43.81910000     -35.39860000     -71.22810000
C      -44.45770000     -35.25620000     -69.98370000
C      -44.02270000     -34.16780000     -69.18860000
H      -42.65280000     -32.50820000     -69.01390000
H      -42.50840000     -34.56910000     -72.64680000
H      -45.16670000     -35.99610000     -69.73020000
H      -44.60790000     -34.05640000     -68.21620000
C      -44.13780000     -36.56620000     -72.12940000
H      -44.15830000     -37.53770000     -71.63660000
H      -43.38480000     -36.64010000     -72.96880000
C      -41.74980000     -32.26140000     -71.56040000
H      -41.27500000     -31.73370000     -70.80830000
H      -41.21480000     -32.68100000     -72.41800000
S      -45.87680000     -36.52980000     -72.91210000
S      -42.78950000     -30.82180000     -72.24500000
C      -45.95160000     -34.85740000     -73.80860000
H      -45.06400000     -34.23470000     -73.51990000
H      -45.94430000     -35.13980000     -74.90460000
C      -44.14970000     -31.60580000     -73.31600000
H      -44.08860000     -32.72150000     -73.27810000
H      -43.92930000     -31.40630000     -74.33430000
C      -45.53600000     -31.18220000     -72.92490000
H      -45.76570000     -30.10360000     -73.02430000
H      -46.33000000     -31.58550000     -73.55040000
C      -47.22430000     -34.11090000     -73.43580000
H      -48.13810000     -34.60180000     -73.72860000
H      -47.19960000     -33.23210000     -73.98170000
C      -47.36370000     -33.79330000     -71.97060000
C      -48.32010000     -34.46150000     -71.24700000
C      -46.71240000     -32.77780000     -71.22330000
H      -48.77160000     -35.34880000     -71.59150000
C      -47.10120000     -32.78860000     -69.84710000
C      -45.88810000     -31.61840000     -71.52220000
C      -45.52850000     -30.85500000     -70.41780000
S      -48.42080000     -33.90420000     -69.51370000
S      -46.33940000     -31.43900000     -69.00120000
H      -44.95210000     -29.93180000     -70.29780000
