40
Properties=species:S:1:pos:R:3 #=T CELL(abcABC):=T 1.889726e+02=T 90.00000=T Traj:=T positionsangstrom=T Step:=T 0=T Bead:=T pbc="F F F"
C      -43.44990000     -33.26530000     -69.63050000
C      -42.78920000     -33.45720000     -70.87380000
C      -43.11210000     -34.55830000     -71.62340000
C      -43.93580000     -35.59140000     -71.19990000
C      -44.50220000     -35.45600000     -69.90760000
C      -44.21760000     -34.34610000     -69.12240000
H      -43.37180000     -32.37220000     -69.03640000
H      -42.63020000     -34.64940000     -72.64420000
H      -45.17270000     -36.32810000     -69.67840000
H      -44.63880000     -34.29460000     -68.14880000
C      -44.39550000     -36.72670000     -72.05040000
H      -44.34660000     -37.65180000     -71.48250000
H      -43.67730000     -36.83160000     -72.83850000
C      -41.87010000     -32.38190000     -71.42490000
H      -41.12550000     -32.11680000     -70.65120000
H      -41.34590000     -32.74240000     -72.23730000
S      -46.01520000     -36.39040000     -72.87270000
S      -42.63520000     -30.75620000     -71.91510000
C      -45.74380000     -34.87300000     -73.83520000
H      -44.76310000     -34.46680000     -73.54940000
H      -45.78130000     -35.16150000     -74.90810000
C      -43.91630000     -31.27640000     -73.09170000
H      -43.86220000     -32.38760000     -73.26210000
H      -43.86530000     -30.92520000     -74.17420000
C      -45.33180000     -30.77150000     -72.74760000
H      -45.21240000     -29.68260000     -72.56630000
H      -46.05220000     -31.00050000     -73.57950000
C      -46.94590000     -33.81800000     -73.70040000
H      -47.80740000     -34.24780000     -74.20080000
H      -46.61150000     -32.80500000     -74.22990000
C      -47.34480000     -33.60450000     -72.27500000
C      -48.02950000     -34.55000000     -71.57340000
C      -46.78370000     -32.57700000     -71.38240000
H      -48.58170000     -35.44820000     -71.95140000
C      -47.19020000     -32.80650000     -70.06220000
C      -45.93000000     -31.40950000     -71.51050000
C      -45.68920000     -30.80580000     -70.30890000
S      -48.05580000     -34.25340000     -69.80460000
S      -46.51270000     -31.53470000     -69.00240000
H      -45.21680000     -29.84640000     -70.15910000
