40
Properties=species:S:1:pos:R:3 #=T CELL(abcABC):=T 1.889726e+02=T 90.00000=T Traj:=T positionsangstrom=T Step:=T 0=T Bead:=T pbc="F F F"
C      -43.03520000     -33.66160000     -70.60620000
C      -42.88110000     -33.71830000     -72.02580000
C      -43.45840000     -34.83270000     -72.67680000
C      -44.28190000     -35.80220000     -71.97820000
C      -44.42160000     -35.62160000     -70.59990000
C      -43.78810000     -34.63050000     -69.89860000
H      -42.58730000     -32.86760000     -69.98940000
H      -43.22900000     -34.93790000     -73.77440000
H      -45.04990000     -36.25680000     -70.00330000
H      -43.91060000     -34.51710000     -68.81510000
C      -44.99260000     -36.90670000     -72.67590000
H      -44.79260000     -37.87900000     -72.21100000
H      -44.62370000     -36.87730000     -73.74000000
C      -42.11980000     -32.61480000     -72.72900000
H      -41.20580000     -32.37970000     -72.14690000
H      -41.68550000     -32.93970000     -73.69190000
S      -46.87040000     -36.67320000     -72.72330000
S      -42.97680000     -30.97920000     -72.84210000
C      -46.98090000     -34.99450000     -73.40700000
H      -45.96430000     -34.59580000     -73.49820000
H      -47.44130000     -35.10780000     -74.40500000
C      -44.65390000     -31.25140000     -73.62670000
H      -44.79150000     -32.32320000     -73.92640000
H      -44.51010000     -30.72550000     -74.51420000
C      -45.78240000     -30.83620000     -72.72320000
H      -45.81550000     -29.71720000     -72.70590000
H      -46.73800000     -31.06960000     -73.24600000
C      -47.78390000     -33.86770000     -72.54350000
H      -48.80040000     -34.10580000     -72.34320000
H      -47.88360000     -32.86690000     -73.12300000
C      -47.23270000     -33.54970000     -71.13300000
C      -47.56000000     -34.33400000     -70.10710000
C      -46.51190000     -32.33770000     -70.71600000
H      -48.00390000     -35.33730000     -70.21610000
C      -46.34540000     -32.38720000     -69.34220000
C      -45.84870000     -31.21490000     -71.23250000
C      -45.16660000     -30.49130000     -70.28880000
S      -47.05690000     -33.80910000     -68.54540000
S      -45.45480000     -31.14300000     -68.62930000
H      -44.51750000     -29.69030000     -70.42400000
