40
Properties=species:S:1:pos:R:3 #=T CELL(abcABC):=T 1.889726e+02=T 90.00000=T Traj:=T positionsangstrom=T Step:=T 0=T Bead:=T pbc="F F F"
C      -42.98580000     -33.34070000     -71.30380000
C      -43.15700000     -33.27800000     -72.72960000
C      -43.84330000     -34.28450000     -73.39730000
C      -44.32750000     -35.35220000     -72.71770000
C      -44.14530000     -35.45560000     -71.32510000
C      -43.60600000     -34.38350000     -70.58280000
H      -42.46800000     -32.54080000     -70.83000000
H      -43.81950000     -34.03950000     -74.51370000
H      -44.46620000     -36.32810000     -70.82860000
H      -43.59920000     -34.38670000     -69.50140000
C      -45.10570000     -36.40950000     -73.46390000
H      -44.98990000     -37.33150000     -73.00550000
H      -44.69910000     -36.35380000     -74.52560000
C      -42.73300000     -32.01590000     -73.45470000
H      -41.64630000     -31.87210000     -73.50030000
H      -43.02660000     -32.05020000     -74.50460000
S      -46.93460000     -36.08940000     -73.05240000
S      -43.55200000     -30.56440000     -72.62740000
C      -47.21750000     -34.25780000     -73.33510000
H      -46.34170000     -33.68420000     -73.65650000
H      -47.88050000     -34.18090000     -74.19260000
C      -45.30020000     -30.95920000     -72.97290000
H      -45.51320000     -31.97260000     -73.33160000
H      -45.69830000     -30.31550000     -73.73890000
C      -46.13500000     -30.66540000     -71.75070000
H      -45.96840000     -29.55170000     -71.51760000
H      -47.14480000     -31.00610000     -71.95250000
C      -47.99620000     -33.57550000     -72.13160000
H      -48.86660000     -34.10510000     -71.90470000
H      -48.24710000     -32.54500000     -72.29800000
C      -47.25060000     -33.67850000     -70.77600000
C      -47.36000000     -34.87630000     -70.05510000
C      -46.32190000     -32.76930000     -70.16560000
H      -48.03020000     -35.69630000     -70.15460000
C      -45.86710000     -33.28070000     -68.97570000
C      -45.83440000     -31.39990000     -70.46980000
C      -44.97380000     -30.96480000     -69.49550000
S      -46.42400000     -34.82770000     -68.54780000
S      -44.79250000     -32.10540000     -68.19690000
H      -44.33360000     -30.07200000     -69.41270000
