40
Properties=species:S:1:pos:R:3 #=T CELL(abcABC):=T 1.889726e+02=T 90.00000=T Traj:=T positionsangstrom=T Step:=T 0=T Bead:=T pbc="F F F"
C      -42.54250000     -33.45180000     -71.55840000
C      -43.22860000     -33.08010000     -72.73080000
C      -44.17540000     -33.92660000     -73.31340000
C      -44.47120000     -35.20850000     -72.69250000
C      -43.79250000     -35.56720000     -71.55300000
C      -42.90680000     -34.69700000     -70.96680000
H      -41.80780000     -32.82590000     -71.07960000
H      -44.67870000     -33.61460000     -74.20710000
H      -44.10770000     -36.50980000     -71.00840000
H      -42.35580000     -34.98080000     -70.08390000
C      -45.34290000     -36.18340000     -73.45770000
H      -45.15930000     -37.24560000     -73.12530000
H      -45.26590000     -36.15370000     -74.58190000
C      -42.73460000     -31.84880000     -73.44670000
H      -41.72900000     -31.62340000     -73.24780000
H      -42.89910000     -31.93060000     -74.47850000
S      -47.12950000     -35.88370000     -73.21150000
S      -43.62500000     -30.24980000     -72.75760000
C      -47.48140000     -34.07280000     -73.31850000
H      -46.50830000     -33.55310000     -73.49450000
H      -48.21030000     -33.79990000     -74.11820000
C      -45.41900000     -30.65540000     -72.65840000
H      -45.57330000     -31.61270000     -73.07310000
H      -46.01970000     -30.04520000     -73.34120000
C      -46.03950000     -30.53810000     -71.25310000
H      -45.84320000     -29.59330000     -70.80980000
H      -47.17470000     -30.30390000     -71.32460000
C      -48.05910000     -33.44960000     -72.05240000
H      -49.05530000     -33.83310000     -71.87270000
H      -48.10790000     -32.43500000     -72.20850000
C      -47.26300000     -33.67650000     -70.80440000
C      -47.46690000     -34.88230000     -70.16670000
C      -46.34110000     -32.86020000     -70.05170000
H      -47.83530000     -35.73050000     -70.72990000
C      -45.90010000     -33.48080000     -68.89050000
C      -45.72810000     -31.59910000     -70.21200000
C      -44.86210000     -31.25040000     -69.18540000
S      -46.45660000     -35.08810000     -68.71330000
S      -44.64970000     -32.61790000     -68.08210000
H      -44.22610000     -30.38780000     -69.19190000
