40
Properties=species:S:1:pos:R:3 #=T CELL(abcABC):=T 1.889726e+02=T 90.00000=T Traj:=T positionsangstrom=T Step:=T 0=T Bead:=T pbc="F F F"
C      -42.55280000     -33.45850000     -71.54930000
C      -43.12350000     -32.97740000     -72.71310000
C      -44.01560000     -33.93550000     -73.40850000
C      -44.45840000     -35.14630000     -72.85210000
C      -43.76060000     -35.65900000     -71.65020000
C      -42.76350000     -34.84080000     -71.14880000
H      -41.97100000     -32.77120000     -70.89510000
H      -44.27780000     -33.81210000     -74.42980000
H      -43.73930000     -36.69850000     -71.31200000
H      -42.02390000     -35.31620000     -70.40910000
C      -45.48230000     -35.98270000     -73.68490000
H      -45.19060000     -36.96690000     -73.57460000
H      -45.48990000     -35.72150000     -74.74780000
C      -42.87910000     -31.65690000     -73.31630000
H      -41.78580000     -31.34380000     -73.24290000
H      -42.99820000     -31.66830000     -74.44920000
S      -47.25930000     -35.71790000     -73.19820000
S      -43.81240000     -30.24390000     -72.66050000
C      -47.46660000     -33.88800000     -73.20580000
H      -46.54430000     -33.58370000     -73.63270000
H      -48.13980000     -33.64120000     -73.98160000
C      -45.56360000     -30.79530000     -72.60540000
H      -45.64570000     -31.79670000     -72.98080000
H      -46.16260000     -30.05470000     -73.29120000
C      -46.10760000     -30.59680000     -71.20090000
H      -45.68710000     -29.61380000     -70.95300000
H      -47.22670000     -30.58560000     -71.20850000
C      -48.01140000     -33.24900000     -71.89330000
H      -49.06530000     -33.64440000     -71.84350000
H      -48.16390000     -32.18830000     -72.08890000
C      -47.26790000     -33.66770000     -70.69840000
C      -47.54060000     -34.84900000     -70.07020000
C      -46.13560000     -32.98330000     -70.14080000
H      -48.31110000     -35.61790000     -70.42690000
C      -45.68340000     -33.66260000     -68.97460000
C      -45.60260000     -31.66580000     -70.20820000
C      -44.77570000     -31.38630000     -69.14220000
S      -46.45710000     -35.16710000     -68.74870000
S      -44.54110000     -32.74320000     -68.08030000
H      -44.20460000     -30.44810000     -69.15790000
