40
Properties=species:S:1:pos:R:3 #=T CELL(abcABC):=T 1.889726e+02=T 90.00000=T Traj:=T positionsangstrom=T Step:=T 0=T Bead:=T pbc="F F F"
C      -47.82580000     -36.10190000     -71.08420000
C      -48.16500000     -35.13500000     -72.06550000
C      -48.52800000     -33.78060000     -71.69910000
C      -48.42050000     -33.37740000     -70.38560000
C      -47.93850000     -34.32410000     -69.38200000
C      -47.70610000     -35.62160000     -69.73900000
H      -47.61050000     -37.13810000     -71.47430000
H      -48.85980000     -33.19420000     -72.54000000
H      -47.94080000     -33.99300000     -68.35570000
H      -47.56170000     -36.32570000     -68.92920000
C      -48.81380000     -32.03140000     -69.81040000
H      -48.99620000     -32.08340000     -68.70730000
H      -49.70130000     -31.65610000     -70.17810000
C      -48.15060000     -35.48320000     -73.53550000
H      -47.83790000     -36.56440000     -73.68920000
H      -49.20320000     -35.37740000     -73.90200000
S      -47.52460000     -30.63370000     -70.08940000
S      -47.12830000     -34.25480000     -74.60650000
C      -45.97300000     -31.35520000     -69.62270000
H      -45.65650000     -31.12210000     -68.61590000
H      -46.05380000     -32.43590000     -69.57320000
C      -45.39670000     -34.37960000     -73.95780000
H      -44.79710000     -33.90190000     -74.76700000
H      -45.18580000     -35.45170000     -73.96840000
C      -45.12240000     -33.85270000     -72.53100000
H      -45.52840000     -32.80450000     -72.37220000
H      -45.78860000     -34.53530000     -71.92300000
C      -44.85460000     -30.91290000     -70.68730000
H      -44.59920000     -29.83940000     -70.48520000
H      -45.31770000     -30.88250000     -71.67360000
C      -43.62480000     -31.77090000     -70.59410000
C      -42.68980000     -31.39590000     -69.62360000
C      -43.14240000     -32.96790000     -71.24000000
H      -42.72440000     -30.52660000     -69.01440000
C      -41.85310000     -33.30110000     -70.92430000
C      -43.69610000     -33.94940000     -72.17230000
C      -42.79610000     -34.92770000     -72.49810000
S      -41.19350000     -32.35830000     -69.58450000
S      -41.29750000     -34.77220000     -71.60130000
H      -42.86700000     -35.73810000     -73.19270000
