40
Properties=species:S:1:pos:R:3 #=T CELL(abcABC):=T 1.889726e+02=T 90.00000=T Traj:=T positionsangstrom=T Step:=T 0=T Bead:=T pbc="F F F"
C      -42.94830000     -33.25330000     -71.75480000
C      -43.23950000     -32.75700000     -73.04070000
C      -44.12970000     -33.55380000     -73.80230000
C      -44.57060000     -34.83370000     -73.39030000
C      -44.28600000     -35.23320000     -72.07660000
C      -43.42370000     -34.49820000     -71.28150000
H      -42.06590000     -32.81260000     -71.22630000
H      -44.50590000     -33.28530000     -74.79860000
H      -44.63210000     -36.17320000     -71.73720000
H      -43.29660000     -35.00420000     -70.30060000
C      -45.64180000     -35.66200000     -74.20060000
H      -45.28920000     -36.69520000     -74.18440000
H      -45.93300000     -35.41880000     -75.19770000
C      -42.77790000     -31.37230000     -73.31310000
H      -41.73940000     -31.28970000     -72.99800000
H      -42.87060000     -31.10360000     -74.31090000
S      -47.27650000     -35.52820000     -73.19310000
S      -43.58070000     -30.10930000     -72.21070000
C      -47.73550000     -33.83230000     -72.99790000
H      -46.87070000     -33.18600000     -73.29210000
H      -48.51320000     -33.57730000     -73.82820000
C      -45.36330000     -30.53320000     -72.41740000
H      -45.41110000     -31.36580000     -73.08100000
H      -45.90440000     -29.76220000     -72.93690000
C      -46.11720000     -30.77750000     -71.09720000
H      -46.05840000     -29.75380000     -70.55580000
H      -47.14680000     -30.68780000     -71.18870000
C      -48.26540000     -33.64360000     -71.58310000
H      -49.17610000     -34.22320000     -71.48950000
H      -48.46540000     -32.60160000     -71.32080000
C      -47.29210000     -34.05280000     -70.47430000
C      -47.39810000     -35.27850000     -69.83410000
C      -46.17870000     -33.24820000     -69.94760000
H      -48.29420000     -35.97290000     -69.95140000
C      -45.46510000     -33.92660000     -68.98750000
C      -45.64730000     -31.91130000     -70.14820000
C      -44.64620000     -31.63390000     -69.29220000
S      -46.19270000     -35.47460000     -68.53650000
S      -44.18140000     -32.96820000     -68.33560000
H      -44.06890000     -30.69360000     -69.31090000
