40
Properties=species:S:1:pos:R:3 #=T CELL(abcABC):=T 1.889726e+02=T 90.00000=T Traj:=T positionsangstrom=T Step:=T 0=T Bead:=T pbc="F F F"
C      -48.83630000     -34.36030000     -72.61960000
C      -47.90820000     -33.69560000     -73.47320000
C      -47.76350000     -32.29660000     -73.36720000
C      -48.33650000     -31.62220000     -72.30170000
C      -49.29130000     -32.26830000     -71.41060000
C      -49.56490000     -33.61320000     -71.64310000
H      -49.06410000     -35.38810000     -72.75310000
H      -46.99110000     -31.75100000     -73.99380000
H      -49.64440000     -31.72790000     -70.52350000
H      -50.28870000     -34.20430000     -71.07990000
C      -47.91210000     -30.17970000     -72.06970000
H      -48.70770000     -29.59480000     -71.69360000
H      -47.60690000     -29.84890000     -73.09370000
C      -47.00130000     -34.40320000     -74.39340000
H      -47.47370000     -34.46980000     -75.37350000
H      -46.11840000     -33.80810000     -74.60420000
S      -46.62770000     -29.79280000     -70.78850000
S      -46.59810000     -36.08410000     -73.78740000
C      -45.33550000     -31.09250000     -70.91410000
H      -45.49410000     -31.47830000     -71.98460000
H      -44.35910000     -30.58060000     -70.94620000
C      -44.97150000     -35.77210000     -73.04490000
H      -44.33630000     -35.80960000     -73.88360000
H      -44.71920000     -36.59150000     -72.39130000
C      -44.82160000     -34.45650000     -72.33370000
H      -44.55100000     -33.72620000     -73.10080000
H      -45.74680000     -34.23400000     -71.84280000
C      -45.48740000     -32.17580000     -69.78220000
H      -46.25880000     -32.95930000     -70.09840000
H      -45.70970000     -31.61580000     -68.86940000
C      -44.18380000     -32.83650000     -69.39150000
C      -43.44310000     -32.38880000     -68.27370000
C      -43.47910000     -33.81200000     -70.16690000
H      -43.65020000     -31.60430000     -67.53300000
C      -42.24020000     -34.14530000     -69.53820000
C      -43.66800000     -34.57970000     -71.35350000
C      -42.58930000     -35.35260000     -71.64960000
S      -41.88380000     -33.18170000     -68.15850000
S      -41.32510000     -35.31960000     -70.42890000
H      -42.61060000     -36.06480000     -72.49860000
