40
Properties=species:S:1:pos:R:3 #=T CELL(abcABC):=T 1.889726e+02=T 90.00000=T Traj:=T positionsangstrom=T Step:=T 0=T Bead:=T pbc="F F F"
C      -49.30100000     -34.34460000     -73.10450000
C      -47.99930000     -33.88340000     -73.60240000
C      -47.54530000     -32.61870000     -73.28520000
C      -48.37400000     -31.76560000     -72.43770000
C      -49.60570000     -32.17830000     -71.94780000
C      -50.05350000     -33.49490000     -72.31020000
H      -49.71640000     -35.26410000     -73.45360000
H      -46.58750000     -32.22990000     -73.58720000
H      -50.26650000     -31.64220000     -71.31310000
H      -51.01160000     -33.84090000     -71.95940000
C      -47.90640000     -30.37660000     -72.29280000
H      -48.76680000     -29.66370000     -72.01460000
H      -47.49510000     -30.03620000     -73.21830000
C      -47.16330000     -34.71600000     -74.54100000
H      -47.66620000     -35.05950000     -75.44610000
H      -46.28400000     -34.15040000     -74.94240000
S      -46.47550000     -29.92390000     -71.02110000
S      -46.41390000     -36.22200000     -73.77500000
C      -45.47240000     -31.49930000     -70.99000000
H      -45.79010000     -32.20950000     -71.78770000
H      -44.44880000     -31.10300000     -71.22430000
C      -44.80920000     -35.49210000     -73.19780000
H      -44.54060000     -34.60020000     -73.71500000
H      -44.09520000     -36.27190000     -73.39260000
C      -44.88090000     -35.09910000     -71.62690000
H      -45.68270000     -34.36730000     -71.54020000
H      -45.29790000     -35.92380000     -70.99840000
C      -45.56620000     -32.21290000     -69.68700000
H      -46.35370000     -33.01350000     -69.74170000
H      -45.86120000     -31.52090000     -68.83600000
C      -44.23340000     -32.76350000     -69.27660000
C      -43.58500000     -32.22510000     -68.20910000
C      -43.38390000     -33.75530000     -69.90060000
H      -44.02740000     -31.57560000     -67.47290000
C      -42.13170000     -33.82560000     -69.34920000
C      -43.52590000     -34.72340000     -71.03370000
C      -42.37250000     -35.33880000     -71.36170000
S      -41.99060000     -32.78900000     -67.97510000
S      -41.06680000     -34.87110000     -70.21950000
H      -42.14020000     -36.14890000     -72.02070000
