40
Properties=species:S:1:pos:R:3 #=T CELL(abcABC):=T 1.889726e+02=T 90.00000=T Traj:=T positionsangstrom=T Step:=T 0=T Bead:=T pbc="F F F"
C      -48.60440000     -34.21830000     -72.30770000
C      -47.73970000     -33.54170000     -73.24570000
C      -47.50460000     -32.19250000     -73.20550000
C      -48.04310000     -31.45020000     -72.12040000
C      -48.74330000     -32.08460000     -71.11110000
C      -49.08500000     -33.42550000     -71.24700000
H      -48.82010000     -35.29860000     -72.46540000
H      -46.93000000     -31.62740000     -73.97580000
H      -49.15100000     -31.53670000     -70.18710000
H      -49.69740000     -33.91620000     -70.48280000
C      -47.89950000     -29.95910000     -71.96290000
H      -48.88230000     -29.40670000     -71.71330000
H      -47.47520000     -29.46880000     -72.82170000
C      -47.39660000     -34.46440000     -74.44710000
H      -48.25620000     -34.73370000     -75.07220000
H      -46.60360000     -33.96370000     -75.09160000
S      -46.72470000     -29.73290000     -70.54270000
S      -46.79270000     -36.12190000     -73.99020000
C      -45.47300000     -31.05100000     -70.90350000
H      -45.66720000     -31.42790000     -71.93720000
H      -44.49640000     -30.67900000     -70.90440000
C      -45.11040000     -35.86540000     -73.14050000
H      -44.36850000     -35.98190000     -74.00820000
H      -44.87180000     -36.67120000     -72.46960000
C      -44.89550000     -34.56140000     -72.42160000
H      -45.01860000     -33.61030000     -72.99050000
H      -45.74130000     -34.45770000     -71.71960000
C      -45.54610000     -32.26930000     -69.87180000
H      -46.22670000     -33.04260000     -70.23030000
H      -45.92950000     -31.91200000     -68.92040000
C      -44.12870000     -32.75370000     -69.68450000
C      -43.48650000     -32.41410000     -68.46570000
C      -43.41640000     -33.80460000     -70.36750000
H      -43.85020000     -31.76230000     -67.65310000
C      -42.17890000     -34.15060000     -69.72630000
C      -43.60610000     -34.55740000     -71.57700000
C      -42.65380000     -35.53700000     -71.75110000
S      -41.98620000     -33.27910000     -68.23720000
S      -41.38470000     -35.52090000     -70.48730000
H      -42.66900000     -36.10390000     -72.64900000
