40
Properties=species:S:1:pos:R:3 #=T CELL(abcABC):=T 1.889726e+02=T 90.00000=T Traj:=T positionsangstrom=T Step:=T 0=T Bead:=T pbc="F F F"
C      -48.55350000     -34.20930000     -71.98160000
C      -47.98850000     -33.52630000     -73.12690000
C      -47.82830000     -32.15850000     -73.14050000
C      -48.10100000     -31.37240000     -72.00450000
C      -48.73360000     -31.94070000     -70.87110000
C      -48.92380000     -33.34650000     -70.87210000
H      -48.51680000     -35.31170000     -71.85900000
H      -47.45600000     -31.71990000     -74.04870000
H      -49.14640000     -31.37380000     -70.05310000
H      -49.43480000     -33.79190000     -70.00360000
C      -47.51210000     -29.98870000     -72.06270000
H      -48.37660000     -29.28500000     -72.06480000
H      -46.84760000     -29.75390000     -72.87900000
C      -47.53800000     -34.25180000     -74.40920000
H      -48.43720000     -34.41950000     -75.00940000
H      -46.85910000     -33.59440000     -74.88590000
S      -46.57520000     -29.63180000     -70.50670000
S      -46.88670000     -35.92930000     -74.18620000
C      -45.10750000     -30.74680000     -70.51120000
H      -44.63190000     -30.73420000     -71.48620000
H      -44.42090000     -30.23480000     -69.77680000
C      -45.24930000     -35.95540000     -73.31100000
H      -44.46950000     -36.05240000     -74.04160000
H      -45.20140000     -36.88100000     -72.68680000
C      -45.03780000     -34.78210000     -72.40840000
H      -45.11780000     -33.86490000     -72.98880000
H      -45.87340000     -34.82830000     -71.70360000
C      -45.40260000     -32.18270000     -70.11210000
H      -45.93440000     -32.72640000     -70.84940000
H      -46.13390000     -32.14420000     -69.26680000
C      -44.20600000     -32.94810000     -69.62790000
C      -43.48510000     -32.59030000     -68.49020000
C      -43.54620000     -33.99350000     -70.36040000
H      -43.73860000     -31.68400000     -67.93150000
C      -42.30920000     -34.32700000     -69.82710000
C      -43.76540000     -34.86470000     -71.51330000
C      -42.70390000     -35.70380000     -71.75040000
S      -41.97480000     -33.40530000     -68.36160000
S      -41.31520000     -35.49210000     -70.68150000
H      -42.67630000     -36.43950000     -72.54960000
