40
Properties=species:S:1:pos:R:3 #=T CELL(abcABC):=T 1.889726e+02=T 90.00000=T Traj:=T positionsangstrom=T Step:=T 0=T Bead:=T pbc="F F F"
C      -42.92630000     -33.41430000     -72.02380000
C      -43.70650000     -32.80010000     -73.00260000
C      -44.58030000     -33.58740000     -73.75460000
C      -44.84880000     -34.96170000     -73.47440000
C      -44.12890000     -35.52250000     -72.33390000
C      -43.21490000     -34.69930000     -71.71340000
H      -42.21800000     -32.91440000     -71.37050000
H      -45.08200000     -33.18040000     -74.60930000
H      -44.39780000     -36.49600000     -72.01330000
H      -42.78540000     -35.12490000     -70.84060000
C      -45.93470000     -35.75110000     -74.15410000
H      -45.83740000     -36.75790000     -73.82060000
H      -45.90870000     -35.69030000     -75.25040000
C      -43.57970000     -31.41930000     -73.46850000
H      -42.48000000     -31.16560000     -73.65800000
H      -44.20790000     -31.10450000     -74.32990000
S      -47.65300000     -35.32140000     -73.41390000
S      -44.15020000     -30.19960000     -72.09500000
C      -47.65410000     -33.52740000     -72.94610000
H      -46.68080000     -33.07580000     -73.06480000
H      -48.43030000     -32.98520000     -73.43990000
C      -45.90080000     -30.53810000     -71.77680000
H      -46.12420000     -31.50920000     -72.26910000
H      -46.55910000     -29.80160000     -72.31910000
C      -46.08210000     -30.48650000     -70.30580000
H      -45.50340000     -29.66070000     -69.88570000
H      -47.16280000     -30.37920000     -69.92490000
C      -48.02500000     -33.38120000     -71.42190000
H      -48.83430000     -34.01070000     -71.18230000
H      -48.41670000     -32.34780000     -71.28430000
C      -46.90040000     -33.87720000     -70.50660000
C      -46.89080000     -35.20130000     -70.15830000
C      -45.86300000     -33.07900000     -69.79490000
H      -47.47140000     -36.00470000     -70.52220000
C      -45.00860000     -33.95310000     -69.11760000
C      -45.48600000     -31.69600000     -69.60580000
C      -44.47400000     -31.58820000     -68.73320000
S      -45.50390000     -35.62920000     -69.21790000
S      -43.83350000     -33.14800000     -68.16750000
H      -44.08930000     -30.63560000     -68.29610000
