40
Properties=species:S:1:pos:R:3 #=T CELL(abcABC):=T 1.889726e+02=T 90.00000=T Traj:=T positionsangstrom=T Step:=T 0=T Bead:=T pbc="F F F"
C      -43.04660000     -33.64000000     -72.76280000
C      -43.88180000     -32.76210000     -73.38510000
C      -45.06440000     -33.26680000     -73.96870000
C      -45.51410000     -34.63510000     -73.86600000
C      -44.67650000     -35.39750000     -73.07100000
C      -43.41810000     -34.95330000     -72.60250000
H      -42.15410000     -33.18260000     -72.20900000
H      -45.62880000     -32.53750000     -74.40250000
H      -44.96110000     -36.46070000     -72.88550000
H      -42.77290000     -35.66110000     -72.09070000
C      -46.88500000     -35.00540000     -74.27290000
H      -46.89030000     -35.95140000     -74.80940000
H      -47.45770000     -34.22060000     -74.84470000
C      -43.43570000     -31.30800000     -73.61430000
H      -42.31770000     -31.34590000     -73.86680000
H      -44.11060000     -30.97930000     -74.41960000
S      -47.90380000     -35.29860000     -72.66590000
S      -43.60590000     -30.16530000     -72.24850000
C      -48.09440000     -33.52780000     -72.10670000
H      -47.27350000     -32.95620000     -72.43380000
H      -48.88330000     -33.11200000     -72.71480000
C      -45.39460000     -30.29550000     -71.91300000
H      -45.92590000     -30.87900000     -72.71140000
H      -45.66060000     -29.25370000     -72.00570000
C      -45.80270000     -30.68380000     -70.49880000
H      -45.48210000     -29.92410000     -69.79610000
H      -46.90320000     -30.68730000     -70.52370000
C      -48.23960000     -33.41400000     -70.57890000
H      -49.03150000     -34.05220000     -70.30060000
H      -48.54290000     -32.34890000     -70.43620000
C      -47.08400000     -33.85850000     -69.71510000
C      -47.12840000     -35.07640000     -69.15170000
C      -45.76640000     -33.20440000     -69.59930000
H      -47.88350000     -35.88170000     -69.12040000
C      -44.85750000     -34.10730000     -69.05050000
C      -45.19570000     -31.96840000     -69.94130000
C      -43.83490000     -31.96110000     -69.64860000
S      -45.51370000     -35.57200000     -68.42850000
S      -43.23420000     -33.49090000     -68.97410000
H      -43.19340000     -31.12550000     -69.54770000
