40
Properties=species:S:1:pos:R:3 #=T CELL(abcABC):=T 1.889726e+02=T 90.00000=T Traj:=T positionsangstrom=T Step:=T 0=T Bead:=T pbc="F F F"
C      -42.11190000     -31.45800000     -73.67720000
C      -42.27190000     -32.37240000     -72.67720000
C      -42.96300000     -31.95060000     -71.55750000
C      -43.51810000     -30.67030000     -71.41610000
C      -43.48890000     -29.78920000     -72.47480000
C      -42.73160000     -30.16470000     -73.62540000
H      -41.47780000     -31.73360000     -74.54740000
H      -43.06820000     -32.66670000     -70.77110000
H      -43.89690000     -28.76390000     -72.46080000
H      -42.64660000     -29.59650000     -74.54330000
C      -44.18310000     -30.32990000     -70.08810000
H      -44.56320000     -29.30360000     -70.11390000
H      -43.64770000     -30.55670000     -69.26600000
C      -41.74390000     -33.79630000     -72.79070000
H      -40.70340000     -33.97400000     -73.12250000
H      -41.75280000     -34.13530000     -71.78340000
S      -45.82370000     -31.21020000     -69.74540000
S      -42.66430000     -34.94940000     -73.91930000
C      -46.72900000     -30.91740000     -71.32740000
H      -47.71350000     -30.45310000     -71.11460000
H      -46.16510000     -30.18740000     -71.95630000
C      -43.86760000     -35.75270000     -72.75720000
H      -43.30660000     -35.98400000     -71.86170000
H      -44.06130000     -36.73580000     -73.25540000
C      -45.15210000     -34.96270000     -72.48090000
H      -44.89730000     -33.95050000     -72.05730000
H      -45.71670000     -34.89840000     -73.38220000
C      -46.86980000     -32.25650000     -72.04910000
H      -45.93650000     -32.63120000     -72.32910000
H      -47.53600000     -32.16700000     -72.94770000
C      -47.47460000     -33.26460000     -71.07970000
C      -48.47830000     -32.84910000     -70.18440000
C      -47.06030000     -34.57930000     -70.82750000
H      -48.99330000     -31.88070000     -70.15600000
C      -47.70560000     -35.18980000     -69.77220000
C      -46.03660000     -35.52780000     -71.36620000
C      -45.82870000     -36.61220000     -70.58750000
S      -48.79740000     -34.13330000     -68.93370000
S      -47.13410000     -36.82450000     -69.43020000
H      -45.08860000     -37.43240000     -70.80360000
