40
Properties=species:S:1:pos:R:3 #=T CELL(abcABC):=T 1.889726e+02=T 90.00000=T Traj:=T positionsangstrom=T Step:=T 0=T Bead:=T pbc="F F F"
C      -42.20140000     -31.51890000     -73.69740000
C      -42.30690000     -32.44190000     -72.63730000
C      -42.94490000     -32.08310000     -71.44550000
C      -43.44830000     -30.80640000     -71.28030000
C      -43.35140000     -29.90390000     -72.35520000
C      -42.72360000     -30.20520000     -73.56140000
H      -41.69630000     -31.92130000     -74.61170000
H      -43.02290000     -32.84700000     -70.71970000
H      -43.85280000     -28.96340000     -72.31890000
H      -42.60540000     -29.55860000     -74.41520000
C      -44.16310000     -30.27530000     -70.07520000
H      -44.28110000     -29.13890000     -70.27300000
H      -43.45570000     -30.29460000     -69.22140000
C      -41.58920000     -33.83940000     -72.84100000
H      -40.52330000     -33.91740000     -73.36670000
H      -41.41380000     -34.31080000     -71.87160000
S      -45.74110000     -31.13810000     -69.76280000
S      -42.67830000     -34.86180000     -73.90960000
C      -46.57320000     -30.82410000     -71.36690000
H      -47.48880000     -30.26900000     -71.08040000
H      -45.98610000     -30.26040000     -72.03760000
C      -43.68910000     -35.84350000     -72.65030000
H      -43.16700000     -35.93770000     -71.67310000
H      -43.93990000     -36.84940000     -72.99060000
C      -45.08130000     -35.10590000     -72.49790000
H      -44.74620000     -34.09850000     -72.29980000
H      -45.52450000     -35.04180000     -73.52260000
C      -47.00110000     -32.12680000     -72.09290000
H      -46.02430000     -32.51980000     -72.54920000
H      -47.71420000     -31.80180000     -72.85030000
C      -47.43300000     -33.20200000     -71.03970000
C      -48.55530000     -32.92320000     -70.24550000
C      -46.95200000     -34.51940000     -70.75300000
H      -49.16230000     -32.06070000     -70.45800000
C      -47.73760000     -35.14790000     -69.69680000
C      -46.08320000     -35.50760000     -71.35940000
C      -46.05590000     -36.72210000     -70.70700000
S      -48.97200000     -34.13950000     -69.09060000
S      -47.18350000     -36.75990000     -69.40070000
H      -45.48310000     -37.60860000     -71.11020000
