40
Properties=species:S:1:pos:R:3 #=T CELL(abcABC):=T 1.889726e+02=T 90.00000=T Traj:=T positionsangstrom=T Step:=T 0=T Bead:=T pbc="F F F"
C      -46.69580000     -36.33460000     -70.27580000
C      -47.65970000     -35.34720000     -70.01830000
C      -47.44400000     -34.39050000     -69.02400000
C      -46.27800000     -34.44280000     -68.20480000
C      -45.43720000     -35.54600000     -68.33560000
C      -45.59810000     -36.48730000     -69.36630000
H      -46.76450000     -37.05880000     -71.10100000
H      -48.09900000     -33.57380000     -68.82660000
H      -44.58110000     -35.71860000     -67.67860000
H      -44.93830000     -37.30350000     -69.47790000
C      -46.14550000     -33.31650000     -67.15550000
H      -45.34420000     -33.49200000     -66.39650000
H      -47.18410000     -33.34230000     -66.64990000
C      -48.83530000     -35.23170000     -70.99350000
H      -48.80530000     -36.10390000     -71.71350000
H      -49.87100000     -35.19190000     -70.51230000
S      -45.92920000     -31.60290000     -67.90790000
S      -48.68790000     -33.55380000     -72.08140000
C      -44.63450000     -31.86090000     -69.05380000
H      -44.02410000     -30.93440000     -69.19860000
H      -43.91170000     -32.62910000     -68.75020000
C      -47.15300000     -33.84750000     -73.05970000
H      -47.43230000     -34.64840000     -73.75970000
H      -46.31850000     -34.23350000     -72.49000000
C      -46.60930000     -32.61050000     -73.74560000
H      -47.17890000     -32.27490000     -74.60590000
H      -46.79200000     -31.67460000     -73.13240000
C      -45.12100000     -32.19220000     -70.55790000
H      -45.82010000     -31.38900000     -70.86740000
H      -45.72760000     -33.07230000     -70.52200000
C      -43.93480000     -32.36930000     -71.47620000
C      -42.62270000     -32.44900000     -71.05110000
C      -44.07330000     -32.60190000     -72.91360000
H      -42.27630000     -32.29200000     -70.07710000
C      -42.77740000     -32.71790000     -73.54970000
C      -45.11860000     -32.77790000     -73.97810000
C      -44.54770000     -33.11390000     -75.21130000
S      -41.44220000     -32.60130000     -72.36680000
S      -42.77800000     -33.00820000     -75.22630000
H      -45.08740000     -33.11650000     -76.17290000
