40
Properties=species:S:1:pos:R:3 #=T CELL(abcABC):=T 1.889726e+02=T 90.00000=T Traj:=T positionsangstrom=T Step:=T 0=T Bead:=T pbc="F F F"
C      -42.45350000     -31.63810000     -73.97880000
C      -42.41190000     -32.52700000     -72.88420000
C      -42.87180000     -32.10560000     -71.64210000
C      -43.47720000     -30.87710000     -71.42470000
C      -43.60350000     -29.97490000     -72.53970000
C      -43.13590000     -30.43170000     -73.78630000
H      -42.09990000     -31.92860000     -75.01940000
H      -42.72360000     -32.72110000     -70.73240000
H      -44.22120000     -29.14770000     -72.46250000
H      -43.17660000     -29.78060000     -74.63590000
C      -43.84580000     -30.43880000     -70.08070000
H      -44.00850000     -29.36180000     -69.90860000
H      -43.13330000     -30.82540000     -69.33280000
C      -41.83340000     -33.85730000     -73.16620000
H      -40.76220000     -33.75040000     -73.59950000
H      -41.58150000     -34.62720000     -72.42380000
S      -45.33940000     -31.30080000     -69.37500000
S      -43.00400000     -34.74160000     -74.39240000
C      -46.65640000     -30.76440000     -70.50150000
H      -47.50630000     -30.47120000     -69.85800000
H      -46.42940000     -29.93030000     -71.10430000
C      -44.21880000     -35.64080000     -73.26640000
H      -43.68080000     -36.16140000     -72.44370000
H      -44.79970000     -36.27860000     -73.90820000
C      -45.26500000     -34.69560000     -72.67910000
H      -44.68890000     -33.76960000     -72.42970000
H      -46.10420000     -34.42850000     -73.35270000
C      -47.16250000     -31.89120000     -71.52240000
H      -46.32310000     -32.27710000     -72.18480000
H      -47.94760000     -31.57200000     -72.18220000
C      -47.56580000     -33.11190000     -70.69800000
C      -48.50130000     -32.95210000     -69.71390000
C      -46.97220000     -34.45230000     -70.64490000
H      -48.88240000     -31.97810000     -69.37160000
C      -47.49530000     -35.20430000     -69.64790000
C      -45.92290000     -35.17720000     -71.43620000
C      -45.89320000     -36.46590000     -71.03020000
S      -48.71020000     -34.36250000     -68.64630000
S      -46.89780000     -36.82610000     -69.65660000
H      -45.22210000     -37.25240000     -71.34050000
