40
Properties=species:S:1:pos:R:3 #=T CELL(abcABC):=T 1.889726e+02=T 90.00000=T Traj:=T positionsangstrom=T Step:=T 0=T Bead:=T pbc="F F F"
C      -49.28040000     -33.00830000     -71.72700000
C      -48.19910000     -32.83110000     -72.60530000
C      -47.31350000     -31.75430000     -72.44810000
C      -47.60770000     -30.82780000     -71.45820000
C      -48.83720000     -30.84960000     -70.78380000
C      -49.68770000     -31.90800000     -70.96600000
H      -50.02220000     -33.76590000     -71.88190000
H      -46.46640000     -31.70060000     -73.04560000
H      -49.01000000     -30.05570000     -70.06160000
H      -50.63920000     -31.99940000     -70.54390000
C      -46.65690000     -29.59770000     -71.29190000
H      -47.33670000     -28.68580000     -71.24660000
H      -46.07400000     -29.53470000     -72.30780000
C      -48.10530000     -33.79200000     -73.85430000
H      -49.02470000     -33.68100000     -74.32650000
H      -47.34360000     -33.54420000     -74.51460000
S      -45.47470000     -29.59330000     -69.87970000
S      -48.04430000     -35.59140000     -73.46010000
C      -44.23250000     -30.87850000     -70.31520000
H      -44.10370000     -30.72880000     -71.43490000
H      -43.31390000     -30.67260000     -69.85290000
C      -46.24810000     -35.82040000     -73.28530000
H      -45.75040000     -35.35360000     -74.18240000
H      -46.12340000     -36.93640000     -73.25230000
C      -45.69440000     -35.02950000     -72.02800000
H      -45.96760000     -33.99340000     -72.18880000
H      -46.27420000     -35.39420000     -71.23090000
C      -44.70630000     -32.27510000     -69.99150000
H      -45.24930000     -32.55400000     -70.85070000
H      -45.18560000     -32.25230000     -69.04070000
C      -43.56190000     -33.20810000     -69.94050000
C      -42.39510000     -32.93040000     -69.22930000
C      -43.46550000     -34.42660000     -70.72800000
H      -42.25780000     -32.01220000     -68.69490000
C      -42.24090000     -35.04350000     -70.50790000
C      -44.21530000     -35.12980000     -71.75520000
C      -43.50630000     -36.23020000     -72.29630000
S      -41.24370000     -34.22700000     -69.36820000
S      -41.97620000     -36.45980000     -71.54230000
H      -43.99390000     -36.90980000     -73.00080000
