40
Properties=species:S:1:pos:R:3 #=T CELL(abcABC):=T 1.889726e+02=T 90.00000=T Traj:=T positionsangstrom=T Step:=T 0=T Bead:=T pbc="F F F"
C      -43.03960000     -35.50790000     -68.51340000
C      -44.20280000     -35.21040000     -69.18030000
C      -44.84240000     -34.01010000     -68.94080000
C      -44.38860000     -33.17010000     -67.93050000
C      -43.26370000     -33.51310000     -67.17560000
C      -42.55240000     -34.62560000     -67.54170000
H      -42.61040000     -36.46290000     -68.72570000
H      -45.72870000     -33.74180000     -69.47870000
H      -42.90050000     -32.91800000     -66.35390000
H      -41.67450000     -34.84290000     -66.90480000
C      -44.97740000     -31.76870000     -67.70960000
H      -44.18590000     -30.97800000     -67.74480000
H      -45.33160000     -31.76780000     -66.70820000
C      -44.76320000     -36.11960000     -70.27100000
H      -44.61990000     -37.17530000     -69.96960000
H      -45.80650000     -35.86090000     -70.39840000
S      -46.41060000     -31.08670000     -68.78760000
S      -44.08980000     -35.90380000     -71.94720000
C      -45.34240000     -30.49560000     -70.20610000
H      -45.87030000     -29.67620000     -70.74830000
H      -44.42280000     -30.04680000     -69.76670000
C      -43.11790000     -34.25990000     -71.92540000
H      -42.06900000     -34.57620000     -71.92060000
H      -43.24380000     -33.79220000     -70.92920000
C      -43.28890000     -33.52960000     -73.29990000
H      -42.99850000     -32.48310000     -73.14820000
H      -42.45800000     -33.90730000     -73.86750000
C      -45.00550000     -31.51460000     -71.22800000
H      -44.52610000     -32.42620000     -70.75570000
H      -44.25260000     -31.05060000     -71.92530000
C      -46.15450000     -32.04940000     -72.03300000
C      -47.45940000     -31.71120000     -71.92860000
C      -45.84430000     -32.97220000     -73.16590000
H      -47.92960000     -30.99610000     -71.17170000
C      -47.04200000     -33.19090000     -73.86190000
C      -44.71590000     -33.60430000     -73.80640000
C      -45.07910000     -34.18610000     -75.01860000
S      -48.47640000     -32.44450000     -73.15960000
S      -46.80840000     -33.98940000     -75.45250000
H      -44.44860000     -34.64040000     -75.73690000
