40
Properties=species:S:1:pos:R:3 #=T CELL(abcABC):=T 1.889726e+02=T 90.00000=T Traj:=T positionsangstrom=T Step:=T 0=T Bead:=T pbc="F F F"
C      -44.75570000     -35.04900000     -73.38910000
C      -45.67970000     -34.11050000     -73.85210000
C      -46.94910000     -34.03610000     -73.23120000
C      -47.39620000     -35.01930000     -72.32670000
C      -46.47750000     -36.00330000     -71.89480000
C      -45.19210000     -36.02500000     -72.40260000
H      -43.74540000     -35.05160000     -73.82890000
H      -47.56330000     -33.20990000     -73.46020000
H      -46.66390000     -36.72650000     -71.07910000
H      -44.40480000     -36.64710000     -72.02110000
C      -48.75480000     -34.86690000     -71.70130000
H      -49.20160000     -35.90780000     -71.54990000
H      -49.46870000     -34.26010000     -72.30560000
C      -45.12410000     -33.11210000     -74.88260000
H      -44.34580000     -33.46310000     -75.61500000
H      -45.97530000     -32.85440000     -75.51770000
S      -48.51750000     -34.22470000     -69.99060000
S      -44.29260000     -31.61420000     -74.10150000
C      -47.97720000     -32.40420000     -70.30360000
H      -47.55830000     -32.16080000     -71.31040000
H      -48.75190000     -31.63710000     -70.09800000
C      -45.47960000     -30.92310000     -72.88180000
H      -46.20350000     -31.68360000     -72.70390000
H      -45.94790000     -30.08440000     -73.45150000
C      -44.74610000     -30.51150000     -71.61170000
H      -44.11770000     -29.64420000     -71.85450000
H      -45.45220000     -30.20860000     -70.89450000
C      -46.88040000     -31.99510000     -69.34280000
H      -47.20290000     -32.00030000     -68.30270000
H      -46.64110000     -30.92120000     -69.42200000
C      -45.66350000     -32.84090000     -69.39310000
C      -45.59820000     -34.04230000     -68.65910000
C      -44.36730000     -32.53430000     -69.95330000
H      -46.37770000     -34.31580000     -67.93590000
C      -43.33570000     -33.47530000     -69.59000000
C      -43.93270000     -31.59880000     -70.94430000
C      -42.61660000     -31.87890000     -71.31770000
S      -44.00030000     -34.81850000     -68.61650000
S      -41.89030000     -33.31090000     -70.56650000
H      -42.01210000     -31.32470000     -71.94080000
