40
Properties=species:S:1:pos:R:3 #=T CELL(abcABC):=T 1.889726e+02=T 90.00000=T Traj:=T positionsangstrom=T Step:=T 0=T Bead:=T pbc="F F F"
C      -44.48100000     -34.87160000     -73.48900000
C      -45.43160000     -33.92210000     -74.08060000
C      -46.79350000     -33.95380000     -73.65830000
C      -47.21940000     -34.75950000     -72.56670000
C      -46.34890000     -35.65460000     -72.06390000
C      -45.02190000     -35.76380000     -72.57610000
H      -43.48820000     -35.02210000     -73.94890000
H      -47.49050000     -33.21080000     -74.20880000
H      -46.63570000     -36.24120000     -71.22990000
H      -44.38150000     -36.62320000     -72.22990000
C      -48.63540000     -34.77570000     -72.09940000
H      -48.98430000     -35.79660000     -72.05020000
H      -49.30630000     -34.14060000     -72.77630000
C      -44.90260000     -32.87580000     -75.06550000
H      -43.97130000     -33.23040000     -75.49960000
H      -45.58690000     -32.51000000     -75.88430000
S      -48.80600000     -34.14080000     -70.37600000
S      -44.42620000     -31.29040000     -74.16820000
C      -47.84050000     -32.57120000     -70.40370000
H      -47.19710000     -32.66010000     -71.29250000
H      -48.56930000     -31.75140000     -70.57370000
C      -45.51840000     -30.98680000     -72.68050000
H      -46.20160000     -31.82900000     -72.58970000
H      -46.24180000     -30.16940000     -72.83420000
C      -44.81260000     -30.71960000     -71.32180000
H      -44.18120000     -29.89920000     -71.50630000
H      -45.61840000     -30.45050000     -70.59420000
C      -46.98010000     -32.33500000     -69.17930000
H      -47.61670000     -32.69780000     -68.33880000
H      -46.67820000     -31.30160000     -68.98540000
C      -45.70610000     -33.13790000     -69.09510000
C      -45.56720000     -34.19880000     -68.25430000
C      -44.46920000     -32.81300000     -69.86440000
H      -46.28650000     -34.58380000     -67.54360000
C      -43.47940000     -33.73400000     -69.51170000
C      -43.96660000     -31.84620000     -70.85860000
C      -42.68450000     -32.08830000     -71.21460000
S      -43.94030000     -34.86020000     -68.22410000
S      -41.96330000     -33.41210000     -70.36860000
H      -42.07610000     -31.49040000     -71.96260000
