40
Properties=species:S:1:pos:R:3 #=T CELL(abcABC):=T 1.889726e+02=T 90.00000=T Traj:=T positionsangstrom=T Step:=T 0=T Bead:=T pbc="F F F"
C      -44.46370000     -34.44750000     -73.29810000
C      -45.46420000     -33.63930000     -73.96440000
C      -46.80960000     -33.92120000     -73.62710000
C      -47.14290000     -34.82250000     -72.61520000
C      -46.18660000     -35.62990000     -71.98320000
C      -44.88200000     -35.48200000     -72.44710000
H      -43.38220000     -34.27420000     -73.49430000
H      -47.60370000     -33.32560000     -74.05100000
H      -46.54430000     -36.27000000     -71.16060000
H      -44.05030000     -36.09750000     -71.98290000
C      -48.62040000     -34.74430000     -72.29010000
H      -49.26040000     -35.59990000     -72.44310000
H      -49.00850000     -33.98600000     -72.98680000
C      -45.04060000     -32.67910000     -75.00420000
H      -44.35490000     -33.22100000     -75.61130000
H      -45.90790000     -32.30720000     -75.54460000
S      -48.79080000     -34.27510000     -70.55770000
S      -44.21880000     -31.20250000     -74.12740000
C      -47.83310000     -32.68090000     -70.45800000
H      -47.11570000     -32.82300000     -71.27600000
H      -48.43440000     -31.82280000     -70.72640000
C      -45.46720000     -30.84820000     -72.79840000
H      -46.16410000     -31.64660000     -72.94450000
H      -45.90790000     -29.88320000     -73.11410000
C      -44.91840000     -30.82260000     -71.38920000
H      -44.13290000     -30.02390000     -71.34960000
H      -45.64500000     -30.49040000     -70.66840000
C      -47.05480000     -32.40980000     -69.17210000
H      -47.73070000     -32.48820000     -68.25300000
H      -46.87540000     -31.34200000     -69.14750000
C      -45.74610000     -33.20770000     -69.04750000
C      -45.60610000     -34.26060000     -68.19880000
C      -44.51700000     -32.87150000     -69.73300000
H      -46.34190000     -34.67030000     -67.54120000
C      -43.51310000     -33.76640000     -69.42410000
C      -44.12100000     -32.01430000     -70.85550000
C      -42.84130000     -32.27450000     -71.29740000
S      -43.93240000     -34.93770000     -68.20990000
S      -42.04980000     -33.51960000     -70.37470000
H      -42.22910000     -31.75630000     -72.05740000
