40
Properties=species:S:1:pos:R:3 #=T CELL(abcABC):=T 1.889726e+02=T 90.00000=T Traj:=T positionsangstrom=T Step:=T 0=T Bead:=T pbc="F F F"
C      -44.39680000     -34.23940000     -73.25560000
C      -45.34460000     -33.59450000     -74.05590000
C      -46.70370000     -33.77130000     -73.71410000
C      -47.03650000     -34.80260000     -72.74410000
C      -46.06490000     -35.47870000     -71.96900000
C      -44.74070000     -35.17350000     -72.24420000
H      -43.42780000     -33.93840000     -73.44920000
H      -47.46600000     -33.38970000     -74.26340000
H      -46.36910000     -36.29570000     -71.23240000
H      -43.89980000     -35.67230000     -71.74070000
C      -48.50880000     -34.99440000     -72.31600000
H      -48.86310000     -36.07050000     -72.10420000
H      -49.18740000     -34.51720000     -73.01860000
C      -44.79990000     -32.55370000     -74.96100000
H      -43.98790000     -33.00000000     -75.60320000
H      -45.52460000     -32.21480000     -75.67940000
S      -48.68480000     -34.34420000     -70.50300000
S      -44.07860000     -31.11740000     -74.08420000
C      -47.96030000     -32.66230000     -70.43540000
H      -47.28760000     -32.53200000     -71.29380000
H      -48.72600000     -31.88330000     -70.45040000
C      -45.39710000     -30.68580000     -72.81450000
H      -46.30170000     -31.32560000     -72.98530000
H      -45.75660000     -29.68250000     -72.96300000
C      -44.96800000     -30.84280000     -71.38310000
H      -44.29590000     -29.93080000     -71.20110000
H      -45.83340000     -30.61200000     -70.77540000
C      -47.18840000     -32.47170000     -69.14410000
H      -47.78990000     -32.77930000     -68.24760000
H      -47.13530000     -31.39200000     -69.06710000
C      -45.88520000     -33.22240000     -69.10150000
C      -45.64220000     -34.22890000     -68.16360000
C      -44.71920000     -33.06880000     -69.94850000
H      -46.46470000     -34.66210000     -67.64560000
C      -43.71820000     -33.97960000     -69.60070000
C      -44.19300000     -32.00940000     -70.78630000
C      -42.84260000     -32.18770000     -71.08780000
S      -44.07570000     -34.99740000     -68.26390000
S      -42.19830000     -33.70010000     -70.39950000
H      -42.33090000     -31.60450000     -71.78170000
