40
Properties=species:S:1:pos:R:3 #=T CELL(abcABC):=T 1.889726e+02=T 90.00000=T Traj:=T positionsangstrom=T Step:=T 0=T Bead:=T pbc="F F F"
C      -44.57370000     -35.07070000     -73.47490000
C      -45.42300000     -34.09050000     -73.93470000
C      -46.78520000     -33.99590000     -73.40720000
C      -47.28840000     -34.86630000     -72.47850000
C      -46.43150000     -35.88460000     -72.02960000
C      -45.14990000     -36.03140000     -72.52480000
H      -43.50250000     -35.05450000     -73.71350000
H      -47.44890000     -33.35050000     -74.02100000
H      -46.78870000     -36.72700000     -71.49910000
H      -44.50890000     -36.82930000     -72.29500000
C      -48.70180000     -34.78670000     -71.94520000
H      -49.01680000     -35.81830000     -71.75430000
H      -49.37070000     -34.26040000     -72.53900000
C      -45.05890000     -32.99220000     -75.00540000
H      -44.33320000     -33.27460000     -75.77760000
H      -45.97300000     -32.73190000     -75.54130000
S      -48.72910000     -34.09390000     -70.15640000
S      -44.41090000     -31.34210000     -74.18260000
C      -47.89130000     -32.48720000     -70.34740000
H      -47.40650000     -32.49200000     -71.28430000
H      -48.70790000     -31.73020000     -70.43600000
C      -45.50620000     -31.10100000     -72.76700000
H      -45.97480000     -32.10660000     -72.56310000
H      -46.35130000     -30.42650000     -72.95220000
C      -44.75020000     -30.58860000     -71.49960000
H      -44.10120000     -29.73290000     -71.70620000
H      -45.54940000     -30.23660000     -70.76530000
C      -46.93750000     -32.13870000     -69.20820000
H      -47.45410000     -32.31060000     -68.26940000
H      -46.73830000     -31.01610000     -69.32520000
C      -45.66480000     -32.98300000     -69.14140000
C      -45.44750000     -34.02510000     -68.23890000
C      -44.48930000     -32.80670000     -70.04650000
H      -46.10670000     -34.61940000     -67.58320000
C      -43.45630000     -33.67920000     -69.66640000
C      -43.93970000     -31.74010000     -70.87250000
C      -42.61940000     -31.89340000     -71.24320000
S      -43.92390000     -34.86090000     -68.47240000
S      -41.95060000     -33.33680000     -70.38700000
H      -41.98470000     -31.28040000     -71.87920000
