40
Properties=species:S:1:pos:R:3 #=T CELL(abcABC):=T 1.889726e+02=T 90.00000=T Traj:=T positionsangstrom=T Step:=T 0=T Bead:=T pbc="F F F"
C      -48.38570000     -36.12130000     -71.51580000
C      -48.44110000     -34.99820000     -72.27110000
C      -48.56320000     -33.72620000     -71.61490000
C      -48.65190000     -33.62360000     -70.27660000
C      -48.76840000     -34.83220000     -69.51870000
C      -48.55510000     -36.05110000     -70.11760000
H      -48.19330000     -37.04730000     -72.05620000
H      -48.43110000     -32.88100000     -72.29750000
H      -49.00730000     -34.64940000     -68.50570000
H      -48.46340000     -36.94970000     -69.47300000
C      -48.64910000     -32.24850000     -69.55430000
H      -48.61540000     -32.34450000     -68.47670000
H      -49.64340000     -31.71830000     -69.63850000
C      -48.36480000     -35.02540000     -73.82260000
H      -48.31410000     -36.09070000     -74.14260000
H      -49.33020000     -34.74380000     -74.23330000
S      -47.36650000     -30.99060000     -69.98770000
S      -47.11880000     -33.96120000     -74.53290000
C      -45.67720000     -31.64860000     -69.61870000
H      -45.33160000     -31.60940000     -68.53710000
H      -45.60520000     -32.76880000     -69.85330000
C      -45.44310000     -34.45460000     -73.84960000
H      -44.78250000     -34.16300000     -74.65270000
H      -45.43930000     -35.54730000     -73.75260000
C      -45.08130000     -33.74100000     -72.50970000
H      -45.31840000     -32.67590000     -72.62060000
H      -45.74470000     -34.19060000     -71.67890000
C      -44.70960000     -30.95270000     -70.63990000
H      -44.57140000     -29.85130000     -70.54080000
H      -45.11900000     -31.04570000     -71.67420000
C      -43.29880000     -31.57060000     -70.62060000
C      -42.25490000     -30.95830000     -69.95480000
C      -42.95870000     -32.88120000     -71.20750000
H      -42.20840000     -30.01210000     -69.39530000
C      -41.70350000     -33.31470000     -70.73780000
C      -43.64360000     -33.84230000     -72.01970000
C      -42.85120000     -34.98630000     -72.12450000
S      -40.88410000     -32.09190000     -69.74950000
S      -41.25550000     -34.83900000     -71.42890000
H      -43.07830000     -35.94450000     -72.61180000
