40
Properties=species:S:1:pos:R:3 #=T CELL(abcABC):=T 1.889726e+02=T 90.00000=T Traj:=T positionsangstrom=T Step:=T 0=T Bead:=T pbc="F F F"
C      -44.81830000     -34.95430000     -73.21620000
C      -45.83120000     -34.06350000     -73.78560000
C      -47.07790000     -34.14680000     -73.21580000
C      -47.40690000     -35.03350000     -72.15070000
C      -46.46610000     -35.99330000     -71.71420000
C      -45.17560000     -35.90080000     -72.27350000
H      -43.80920000     -34.86920000     -73.60550000
H      -47.85490000     -33.51350000     -73.55700000
H      -46.64340000     -36.73920000     -70.92460000
H      -44.41350000     -36.64660000     -71.91630000
C      -48.78880000     -34.86650000     -71.49080000
H      -49.42500000     -35.70220000     -71.41750000
H      -49.28980000     -34.08710000     -72.11080000
C      -45.40480000     -33.05400000     -74.82040000
H      -44.82440000     -33.48570000     -75.63940000
H      -46.29960000     -32.56800000     -75.18240000
S      -48.61470000     -34.12820000     -69.78700000
S      -44.10810000     -31.90050000     -74.12730000
C      -47.98250000     -32.41360000     -70.22130000
H      -47.55180000     -32.52230000     -71.22270000
H      -48.84210000     -31.84300000     -70.23060000
C      -45.29370000     -30.96490000     -72.98000000
H      -46.06320000     -31.66150000     -72.56470000
H      -45.82700000     -30.23030000     -73.56740000
C      -44.54580000     -30.39450000     -71.81790000
H      -43.75370000     -29.69110000     -72.26370000
H      -45.08290000     -29.74800000     -71.10170000
C      -46.82290000     -31.91110000     -69.26490000
H      -47.21460000     -31.79690000     -68.20810000
H      -46.63840000     -30.97920000     -69.67120000
C      -45.59730000     -32.77610000     -69.42980000
C      -45.52620000     -33.90580000     -68.62440000
C      -44.39360000     -32.64010000     -70.23050000
H      -46.33090000     -34.18320000     -67.92180000
C      -43.45580000     -33.62430000     -69.92700000
C      -43.88920000     -31.53910000     -71.03240000
C      -42.55630000     -31.82230000     -71.34360000
S      -44.00590000     -34.79860000     -68.78530000
S      -41.92810000     -33.31710000     -70.63490000
H      -41.89360000     -31.26900000     -71.94840000
