40
Properties=species:S:1:pos:R:3 #=T CELL(abcABC):=T 1.889726e+02=T 90.00000=T Traj:=T positionsangstrom=T Step:=T 0=T Bead:=T pbc="F F F"
C      -45.74420000     -37.03180000     -69.51990000
C      -46.16530000     -35.81690000     -68.99880000
C      -47.21650000     -35.04120000     -69.55990000
C      -47.84250000     -35.48580000     -70.72830000
C      -47.47190000     -36.73700000     -71.26650000
C      -46.43200000     -37.49330000     -70.62810000
H      -44.93010000     -37.66830000     -69.11040000
H      -47.62100000     -34.17800000     -69.10500000
H      -47.88730000     -37.01820000     -72.19790000
H      -46.17380000     -38.40550000     -71.13470000
C      -48.94100000     -34.76780000     -71.48160000
H      -49.89120000     -35.21900000     -71.10330000
H      -48.95110000     -35.01410000     -72.55290000
C      -45.38650000     -35.32990000     -67.82720000
H      -45.81090000     -35.53160000     -66.83730000
H      -44.42830000     -35.84610000     -67.81220000
S      -48.85830000     -32.89810000     -71.29070000
S      -45.13580000     -33.42340000     -67.72460000
C      -47.41330000     -32.47110000     -72.40890000
H      -46.94870000     -33.47100000     -72.63190000
H      -47.84740000     -31.99170000     -73.26140000
C      -44.20170000     -32.84550000     -69.23320000
H      -43.17710000     -32.58260000     -68.99020000
H      -44.73340000     -31.96910000     -69.52100000
C      -44.19330000     -33.74340000     -70.47280000
H      -43.69040000     -34.76990000     -70.18440000
H      -45.22910000     -34.06270000     -70.78820000
C      -46.42170000     -31.54890000     -71.70090000
H      -46.20340000     -31.99060000     -70.72870000
H      -46.89820000     -30.58460000     -71.53860000
C      -45.15790000     -31.35770000     -72.56690000
C      -45.05960000     -30.32570000     -73.50730000
C      -43.90530000     -32.10110000     -72.46210000
H      -45.84940000     -29.65490000     -73.82120000
C      -43.00000000     -31.74740000     -73.44730000
C      -43.39710000     -33.15140000     -71.64040000
C      -42.21200000     -33.67150000     -72.06420000
S      -43.53600000     -30.40040000     -74.41180000
S      -41.57450000     -32.71110000     -73.54750000
H      -41.61950000     -34.39480000     -71.55660000
