40
Properties=species:S:1:pos:R:3 #=T CELL(abcABC):=T 1.889726e+02=T 90.00000=T Traj:=T positionsangstrom=T Step:=T 0=T Bead:=T pbc="F F F"
C      -48.82550000     -33.74930000     -71.79910000
C      -48.10410000     -33.16580000     -72.85290000
C      -47.67670000     -31.82590000     -72.73450000
C      -47.94870000     -31.09910000     -71.59140000
C      -48.63420000     -31.68010000     -70.53460000
C      -49.03190000     -33.03390000     -70.60140000
H      -49.18440000     -34.74410000     -71.86510000
H      -47.03890000     -31.39130000     -73.52810000
H      -48.89300000     -31.15390000     -69.61300000
H      -49.58020000     -33.44040000     -69.70680000
C      -47.49560000     -29.68650000     -71.44010000
H      -48.30480000     -29.04060000     -71.12760000
H      -47.12540000     -29.18260000     -72.33760000
C      -47.92180000     -33.82820000     -74.17620000
H      -48.87930000     -34.05470000     -74.64910000
H      -47.26130000     -33.21080000     -74.78210000
S      -46.25810000     -29.56990000     -70.10030000
S      -47.17460000     -35.57480000     -74.10550000
C      -44.94680000     -30.77720000     -70.73740000
H      -45.01560000     -30.89240000     -71.82610000
H      -44.00140000     -30.32220000     -70.41890000
C      -45.57750000     -35.15130000     -73.30100000
H      -45.38590000     -34.18570000     -73.64910000
H      -44.80810000     -35.79820000     -73.61930000
C      -45.64440000     -35.18950000     -71.75770000
H      -46.10080000     -34.21990000     -71.47370000
H      -46.31920000     -36.02050000     -71.38870000
C      -45.09230000     -32.14420000     -70.07140000
H      -45.98060000     -32.78130000     -70.47100000
H      -45.33120000     -31.98910000     -68.96130000
C      -43.70040000     -32.95690000     -70.10830000
C      -42.51950000     -32.37400000     -69.65310000
C      -43.56710000     -34.35560000     -70.49130000
H      -42.56780000     -31.51110000     -69.00930000
C      -42.25020000     -34.75190000     -70.24480000
C      -44.27470000     -35.42380000     -71.17280000
C      -43.46540000     -36.54250000     -71.30680000
S      -41.17440000     -33.48410000     -69.61090000
S      -41.81940000     -36.36950000     -70.71470000
H      -43.67860000     -37.45700000     -71.87490000
