40
Properties=species:S:1:pos:R:3 #=T CELL(abcABC):=T 1.889726e+02=T 90.00000=T Traj:=T positionsangstrom=T Step:=T 0=T Bead:=T pbc="F F F"
C      -48.89410000     -33.63230000     -71.78320000
C      -48.27850000     -33.04170000     -72.93690000
C      -47.76060000     -31.70750000     -72.82600000
C      -47.90450000     -31.03930000     -71.64650000
C      -48.59160000     -31.61550000     -70.58400000
C      -48.99450000     -32.91820000     -70.61800000
H      -49.14860000     -34.70210000     -71.78450000
H      -47.34320000     -31.21680000     -73.71740000
H      -48.64010000     -31.06540000     -69.65810000
H      -49.44300000     -33.26770000     -69.62090000
C      -47.35640000     -29.60090000     -71.46070000
H      -48.08660000     -28.83940000     -71.20110000
H      -46.73440000     -29.41250000     -72.36650000
C      -48.06120000     -33.83030000     -74.24950000
H      -48.94220000     -33.98890000     -74.80960000
H      -47.43790000     -33.22470000     -75.00250000
S      -46.06980000     -29.52260000     -70.07410000
S      -47.19300000     -35.49610000     -74.09610000
C      -44.90000000     -30.82940000     -70.65170000
H      -44.99830000     -30.80590000     -71.79590000
H      -43.89640000     -30.48600000     -70.52490000
C      -45.62250000     -35.35750000     -73.15610000
H      -45.10020000     -34.37360000     -73.46760000
H      -44.89690000     -36.14350000     -73.55620000
C      -45.72120000     -35.40280000     -71.68530000
H      -46.33210000     -34.57190000     -71.31110000
H      -46.26230000     -36.23440000     -71.44500000
C      -45.03550000     -32.20710000     -70.05210000
H      -45.81170000     -32.67360000     -70.62440000
H      -45.47720000     -32.07140000     -69.09710000
C      -43.64450000     -32.93900000     -70.06670000
C      -42.50710000     -32.35720000     -69.55180000
C      -43.48730000     -34.34470000     -70.59060000
H      -42.38310000     -31.30840000     -69.18130000
C      -42.18710000     -34.75590000     -70.38570000
C      -44.31220000     -35.43940000     -71.11330000
C      -43.62890000     -36.61130000     -71.23300000
S      -41.17430000     -33.56790000     -69.49400000
S      -41.92530000     -36.43820000     -70.83850000
H      -44.05390000     -37.42800000     -71.85380000
