40
Properties=species:S:1:pos:R:3 #=T CELL(abcABC):=T 1.889726e+02=T 90.00000=T Traj:=T positionsangstrom=T Step:=T 0=T Bead:=T pbc="F F F"
C      -49.03090000     -33.32480000     -71.55230000
C      -48.42710000     -32.92250000     -72.75970000
C      -47.75930000     -31.65540000     -72.73100000
C      -47.72550000     -30.83530000     -71.61030000
C      -48.27630000     -31.26080000     -70.36050000
C      -48.93250000     -32.51240000     -70.38620000
H      -49.46130000     -34.29260000     -71.38610000
H      -47.17860000     -31.35100000     -73.59910000
H      -48.19500000     -30.61750000     -69.51250000
H      -49.27780000     -32.92880000     -69.46380000
C      -46.93580000     -29.56350000     -71.63960000
H      -47.60420000     -28.69190000     -71.52390000
H      -46.50710000     -29.39090000     -72.63910000
C      -48.48270000     -33.73390000     -74.06520000
H      -49.51130000     -33.93330000     -74.32560000
H      -48.04160000     -33.04840000     -74.83670000
S      -45.68800000     -29.46920000     -70.30690000
S      -47.66890000     -35.43170000     -73.90530000
C      -44.39840000     -30.69250000     -70.67740000
H      -44.11900000     -30.86810000     -71.74470000
H      -43.55110000     -30.33210000     -70.15190000
C      -45.94480000     -34.89980000     -73.26070000
H      -45.70290000     -33.87430000     -73.37910000
H      -45.38120000     -35.51340000     -73.87280000
C      -45.78800000     -35.23510000     -71.78790000
H      -46.36230000     -34.46760000     -71.21270000
H      -46.25450000     -36.23310000     -71.58420000
C      -44.77500000     -32.16680000     -70.24790000
H      -45.50300000     -32.51130000     -70.91140000
H      -45.21950000     -32.16220000     -69.21940000
C      -43.54060000     -33.10470000     -70.23750000
C      -42.42230000     -32.69200000     -69.54720000
C      -43.47100000     -34.46920000     -70.66320000
H      -42.06070000     -31.73500000     -69.26760000
C      -42.22250000     -35.08070000     -70.30800000
C      -44.28890000     -35.40380000     -71.38210000
C      -43.71220000     -36.63000000     -71.54370000
S      -41.21010000     -33.98590000     -69.40520000
S      -42.10900000     -36.75250000     -70.83210000
H      -44.06320000     -37.55590000     -72.06780000
