40
Properties=species:S:1:pos:R:3 #=T CELL(abcABC):=T 1.889726e+02=T 90.00000=T Traj:=T positionsangstrom=T Step:=T 0=T Bead:=T pbc="F F F"
C      -48.73470000     -36.03830000     -71.66320000
C      -48.36810000     -34.84790000     -72.29430000
C      -48.20730000     -33.67340000     -71.59350000
C      -48.37440000     -33.62350000     -70.17910000
C      -48.72330000     -34.82900000     -69.56230000
C      -49.02000000     -36.04960000     -70.27760000
H      -48.88110000     -36.89900000     -72.29820000
H      -48.11330000     -32.77790000     -72.13420000
H      -48.75120000     -34.89150000     -68.44400000
H      -49.35610000     -37.01260000     -69.75000000
C      -48.52470000     -32.38740000     -69.35830000
H      -48.43490000     -32.61330000     -68.29510000
H      -49.55920000     -31.96810000     -69.53710000
C      -48.09430000     -35.10210000     -73.79030000
H      -47.71470000     -36.11610000     -73.82430000
H      -49.02360000     -35.04840000     -74.39600000
S      -47.41170000     -30.89260000     -69.89850000
S      -46.89380000     -33.90040000     -74.63320000
C      -45.76940000     -31.65160000     -69.55960000
H      -45.55880000     -31.42720000     -68.56420000
H      -45.77460000     -32.70800000     -69.72610000
C      -45.37900000     -34.45850000     -73.80810000
H      -44.57060000     -34.34640000     -74.52010000
H      -45.47280000     -35.49370000     -73.54160000
C      -45.10570000     -33.60820000     -72.57860000
H      -45.27340000     -32.51890000     -72.71340000
H      -45.86400000     -33.79480000     -71.81650000
C      -44.64520000     -30.99080000     -70.43730000
H      -44.51190000     -29.97430000     -70.02400000
H      -45.03510000     -30.89550000     -71.45350000
C      -43.35390000     -31.68100000     -70.42630000
C      -42.33620000     -31.14900000     -69.72390000
C      -43.04560000     -32.90540000     -71.13640000
H      -42.29880000     -30.34920000     -68.98740000
C      -41.74760000     -33.34950000     -70.87480000
C      -43.76660000     -33.83340000     -71.95310000
C      -42.99120000     -34.94520000     -72.21430000
S      -40.85890000     -32.12540000     -69.95730000
S      -41.38210000     -34.89750000     -71.45330000
H      -43.27860000     -35.77510000     -72.84920000
