40
Properties=species:S:1:pos:R:3 #=T CELL(abcABC):=T 1.889726e+02=T 90.00000=T Traj:=T positionsangstrom=T Step:=T 0=T Bead:=T pbc="F F F"
C      -48.96110000     -33.44170000     -71.63680000
C      -48.40810000     -32.98620000     -72.80220000
C      -47.65950000     -31.76370000     -72.75020000
C      -47.67770000     -31.03100000     -71.54710000
C      -48.42790000     -31.39830000     -70.42060000
C      -49.02330000     -32.71160000     -70.46410000
H      -49.56310000     -34.31270000     -71.69690000
H      -47.27470000     -31.34090000     -73.69120000
H      -48.53870000     -30.72250000     -69.49850000
H      -49.65300000     -33.10840000     -69.76000000
C      -47.02890000     -29.60610000     -71.52020000
H      -47.70290000     -28.79290000     -71.27340000
H      -46.53660000     -29.49600000     -72.47290000
C      -48.42920000     -33.76620000     -74.07920000
H      -49.38370000     -34.11140000     -74.38710000
H      -48.12100000     -33.18450000     -75.01180000
S      -45.63320000     -29.49050000     -70.23090000
S      -47.56490000     -35.35330000     -73.98560000
C      -44.44040000     -30.74640000     -70.79110000
H      -44.36460000     -30.69260000     -71.89630000
H      -43.49860000     -30.25480000     -70.53610000
C      -45.87580000     -35.01110000     -73.35760000
H      -45.45470000     -34.03680000     -73.66480000
H      -45.22530000     -35.83850000     -73.90150000
C      -45.71550000     -35.20290000     -71.79430000
H      -46.25260000     -34.38760000     -71.37650000
H      -46.24820000     -36.09670000     -71.43120000
C      -44.81200000     -32.14520000     -70.23600000
H      -45.57680000     -32.51220000     -70.87990000
H      -45.29620000     -32.03460000     -69.27300000
C      -43.63470000     -33.08030000     -70.06570000
C      -42.55480000     -32.72240000     -69.35170000
C      -43.49300000     -34.37120000     -70.64840000
H      -42.42470000     -31.81570000     -68.84280000
C      -42.20290000     -34.94150000     -70.43790000
C      -44.36160000     -35.34690000     -71.25490000
C      -43.72320000     -36.57260000     -71.35670000
S      -41.22190000     -33.87950000     -69.49380000
S      -42.11080000     -36.65010000     -70.80200000
H      -43.97550000     -37.33730000     -72.03050000
