40
Properties=species:S:1:pos:R:3 #=T CELL(abcABC):=T 1.889726e+02=T 90.00000=T Traj:=T positionsangstrom=T Step:=T 0=T Bead:=T pbc="F F F"
C      -49.22740000     -33.95230000     -72.06760000
C      -48.36500000     -33.27780000     -72.96430000
C      -47.84710000     -32.03930000     -72.61300000
C      -48.03550000     -31.44680000     -71.34570000
C      -48.88010000     -32.16890000     -70.41240000
C      -49.44050000     -33.40310000     -70.78870000
H      -49.76230000     -34.88580000     -72.34080000
H      -47.23720000     -31.57870000     -73.37030000
H      -48.98870000     -31.74760000     -69.40560000
H      -50.09590000     -33.83570000     -70.14840000
C      -47.77290000     -29.98410000     -71.21040000
H      -48.66350000     -29.49030000     -70.79870000
H      -47.42670000     -29.65670000     -72.16850000
C      -48.09380000     -33.87860000     -74.31250000
H      -48.98480000     -34.00150000     -74.96440000
H      -47.41800000     -33.28740000     -74.91260000
S      -46.29320000     -29.53660000     -70.11820000
S      -47.13820000     -35.54900000     -74.11470000
C      -44.80740000     -30.62300000     -70.82570000
H      -44.69060000     -30.66870000     -71.94100000
H      -43.94190000     -30.09850000     -70.42120000
C      -45.49100000     -35.12760000     -73.33330000
H      -45.13340000     -34.17720000     -73.68530000
H      -44.80240000     -35.83980000     -73.70690000
C      -45.49530000     -35.17180000     -71.72970000
H      -46.06410000     -34.34290000     -71.34220000
H      -45.97590000     -36.03250000     -71.31080000
C      -44.90970000     -32.06920000     -70.19380000
H      -45.74650000     -32.49440000     -70.66510000
H      -45.23300000     -31.98250000     -69.13320000
C      -43.61090000     -32.85260000     -70.15200000
C      -42.48050000     -32.25000000     -69.54370000
C      -43.36250000     -34.17410000     -70.57700000
H      -42.28850000     -31.24490000     -69.34620000
C      -42.06710000     -34.58580000     -70.18930000
C      -44.05280000     -35.27620000     -71.29940000
C      -43.28050000     -36.39980000     -71.44110000
S      -41.12610000     -33.33480000     -69.35860000
S      -41.64590000     -36.18370000     -70.74220000
H      -43.63120000     -37.31190000     -71.86790000
