40
Properties=species:S:1:pos:R:3 #=T CELL(abcABC):=T 1.889726e+02=T 90.00000=T Traj:=T positionsangstrom=T Step:=T 0=T Bead:=T pbc="F F F"
C      -48.88030000     -33.90190000     -71.95120000
C      -48.22130000     -33.18620000     -72.91590000
C      -47.78010000     -31.90110000     -72.68830000
C      -48.09660000     -31.27340000     -71.45040000
C      -48.85680000     -31.95430000     -70.47010000
C      -49.23150000     -33.28960000     -70.73790000
H      -49.05710000     -34.97640000     -72.08780000
H      -47.37990000     -31.29280000     -73.46270000
H      -49.24720000     -31.49460000     -69.51780000
H      -49.70330000     -33.92430000     -70.05250000
C      -47.59810000     -29.80230000     -71.30800000
H      -48.48130000     -29.26570000     -70.86610000
H      -47.46540000     -29.30840000     -72.29450000
C      -47.98580000     -33.92830000     -74.21880000
H      -48.96770000     -34.08990000     -74.74610000
H      -47.42430000     -33.27200000     -74.89020000
S      -46.18780000     -29.53360000     -70.17980000
S      -47.17840000     -35.55680000     -74.08280000
C      -44.87620000     -30.69500000     -70.57740000
H      -44.71620000     -30.82190000     -71.62850000
H      -43.95840000     -30.15900000     -70.23930000
C      -45.57170000     -35.14990000     -73.38850000
H      -45.28720000     -34.07000000     -73.53950000
H      -44.82130000     -35.81750000     -73.90210000
C      -45.60030000     -35.33490000     -71.79290000
H      -46.26220000     -34.65990000     -71.25600000
H      -45.90980000     -36.37440000     -71.68690000
C      -45.04040000     -32.17470000     -70.04720000
H      -45.78250000     -32.64250000     -70.68220000
H      -45.47660000     -32.26610000     -69.06160000
C      -43.65370000     -32.92620000     -70.02170000
C      -42.54660000     -32.32110000     -69.43340000
C      -43.40230000     -34.20040000     -70.62560000
H      -42.56080000     -31.36210000     -69.00570000
C      -42.07640000     -34.60440000     -70.31710000
C      -44.15700000     -35.29890000     -71.23860000
C      -43.40630000     -36.43980000     -71.40420000
S      -41.11830000     -33.33900000     -69.55520000
S      -41.80140000     -36.26940000     -70.70700000
H      -43.80290000     -37.42740000     -71.44340000
