40
Properties=species:S:1:pos:R:3 #=T CELL(abcABC):=T 1.889726e+02=T 90.00000=T Traj:=T positionsangstrom=T Step:=T 0=T Bead:=T pbc="F F F"
C      -48.86710000     -33.62790000     -71.85240000
C      -48.22550000     -33.00270000     -72.96240000
C      -47.65080000     -31.73630000     -72.74590000
C      -47.89730000     -31.02790000     -71.55920000
C      -48.60820000     -31.64810000     -70.50050000
C      -49.07520000     -32.93090000     -70.63510000
H      -49.24080000     -34.67450000     -71.98170000
H      -47.05270000     -31.22820000     -73.47010000
H      -48.83670000     -31.08230000     -69.60320000
H      -49.59640000     -33.47230000     -69.81120000
C      -47.27830000     -29.66920000     -71.48110000
H      -48.04750000     -28.95770000     -71.13490000
H      -47.05490000     -29.31650000     -72.46460000
C      -48.08480000     -33.75310000     -74.23340000
H      -49.13540000     -33.82860000     -74.65140000
H      -47.45350000     -33.21950000     -74.93600000
S      -45.95980000     -29.53630000     -70.22340000
S      -47.38570000     -35.42610000     -74.05610000
C      -44.59660000     -30.71470000     -70.61180000
H      -44.54900000     -30.67970000     -71.71400000
H      -43.68600000     -30.30710000     -70.24540000
C      -45.74110000     -35.09510000     -73.17350000
H      -45.41500000     -34.15120000     -73.48710000
H      -45.05390000     -35.84250000     -73.50300000
C      -45.73020000     -35.26980000     -71.64210000
H      -46.21480000     -34.48080000     -71.03100000
H      -46.32920000     -36.19090000     -71.45590000
C      -44.91400000     -32.07940000     -70.11020000
H      -45.52170000     -32.65860000     -70.79360000
H      -45.49620000     -32.03060000     -69.14960000
C      -43.70020000     -33.04640000     -69.93030000
C      -42.54410000     -32.60360000     -69.33110000
C      -43.51110000     -34.42600000     -70.53880000
H      -42.38840000     -31.52940000     -69.01330000
C      -42.20440000     -34.86200000     -70.35250000
C      -44.34610000     -35.42800000     -71.11640000
C      -43.58930000     -36.55400000     -71.41310000
S      -41.17400000     -33.63160000     -69.56160000
S      -41.95930000     -36.51060000     -70.83940000
H      -44.06310000     -37.47180000     -71.70270000
