40
Properties=species:S:1:pos:R:3 #=T CELL(abcABC):=T 1.889726e+02=T 90.00000=T Traj:=T positionsangstrom=T Step:=T 0=T Bead:=T pbc="F F F"
C      -48.68280000     -34.71480000     -72.99260000
C      -47.93740000     -33.83120000     -73.69500000
C      -47.72120000     -32.54490000     -73.17990000
C      -48.28260000     -32.20220000     -71.88020000
C      -49.03790000     -33.15750000     -71.19790000
C      -49.25990000     -34.41900000     -71.76670000
H      -48.91310000     -35.68990000     -73.40880000
H      -47.17550000     -31.75840000     -73.67850000
H      -49.52630000     -32.93650000     -70.21030000
H      -49.93640000     -35.15310000     -71.36020000
C      -48.07970000     -30.77960000     -71.43640000
H      -48.98770000     -30.14230000     -71.45640000
H      -47.14330000     -30.49540000     -72.02210000
C      -47.33790000     -34.29390000     -75.06120000
H      -48.11560000     -34.91340000     -75.55240000
H      -47.02860000     -33.51960000     -75.78050000
S      -47.65240000     -30.47130000     -69.59560000
S      -45.90360000     -35.36290000     -74.74450000
C      -45.82180000     -30.93450000     -69.48210000
H      -45.25470000     -30.17710000     -70.08900000
H      -45.54450000     -30.73820000     -68.41170000
C      -44.72250000     -34.45830000     -73.55170000
H      -44.86310000     -33.35710000     -73.57550000
H      -43.72710000     -34.58330000     -73.94340000
C      -44.94290000     -34.95420000     -72.14140000
H      -45.75310000     -34.40030000     -71.64340000
H      -45.18130000     -36.02240000     -72.11600000
C      -45.51530000     -32.32790000     -69.94860000
H      -45.62080000     -32.33790000     -71.02390000
H      -46.26970000     -33.09620000     -69.55890000
C      -44.14760000     -32.68280000     -69.57630000
C      -43.42750000     -32.09240000     -68.55980000
C      -43.41090000     -33.75010000     -70.20000000
H      -43.74080000     -31.33550000     -67.83110000
C      -42.10270000     -33.86290000     -69.66510000
C      -43.59710000     -34.57070000     -71.39810000
C      -42.45380000     -35.18940000     -71.79140000
S      -41.83770000     -32.84360000     -68.30700000
S      -41.11320000     -35.02510000     -70.65430000
H      -42.45080000     -35.84240000     -72.62060000
