40
Properties=species:S:1:pos:R:3 #=T CELL(abcABC):=T 1.889726e+02=T 90.00000=T Traj:=T positionsangstrom=T Step:=T 0=T Bead:=T pbc="F F F"
C      -48.71270000     -34.23860000     -72.01690000
C      -48.24820000     -33.43840000     -73.10280000
C      -47.94310000     -32.08020000     -72.86230000
C      -48.37630000     -31.48310000     -71.66290000
C      -49.03010000     -32.27430000     -70.69370000
C      -49.13380000     -33.63910000     -70.84300000
H      -48.63740000     -35.29940000     -72.17460000
H      -47.46920000     -31.44420000     -73.61270000
H      -49.30120000     -31.91990000     -69.60020000
H      -49.63410000     -34.12650000     -69.99460000
C      -47.96670000     -30.07770000     -71.29390000
H      -48.85380000     -29.46220000     -71.06900000
H      -47.56790000     -29.51510000     -72.17070000
C      -47.77840000     -34.00970000     -74.37190000
H      -48.64760000     -34.39740000     -74.98080000
H      -47.23990000     -33.24270000     -74.98770000
S      -46.84880000     -29.99380000     -69.80600000
S      -46.79690000     -35.52460000     -74.23660000
C      -45.33430000     -30.79080000     -70.46580000
H      -45.30880000     -30.62800000     -71.54150000
H      -44.46420000     -30.31120000     -70.11900000
C      -45.28820000     -34.81490000     -73.32520000
H      -45.37930000     -33.73390000     -73.17840000
H      -44.44620000     -35.05520000     -73.93160000
C      -45.17370000     -35.42780000     -71.90460000
H      -45.95730000     -34.93670000     -71.31070000
H      -45.44210000     -36.51730000     -72.05390000
C      -45.27420000     -32.35300000     -70.23610000
H      -45.65120000     -32.73540000     -71.12420000
H      -45.85710000     -32.63760000     -69.33050000
C      -43.87840000     -32.90800000     -70.09550000
C      -42.95890000     -32.19290000     -69.26020000
C      -43.29350000     -34.11100000     -70.61550000
H      -43.15210000     -31.20250000     -68.86600000
C      -41.94840000     -34.20330000     -70.30110000
C      -43.75620000     -35.24720000     -71.36650000
C      -42.84370000     -36.26790000     -71.42610000
S      -41.33980000     -32.90150000     -69.31740000
S      -41.32670000     -35.80100000     -70.64480000
H      -42.96960000     -37.25530000     -71.88460000
