40
Properties=species:S:1:pos:R:3 #=T CELL(abcABC):=T 1.889726e+02=T 90.00000=T Traj:=T positionsangstrom=T Step:=T 0=T Bead:=T pbc="F F F"
C      -48.57780000     -34.62200000     -72.36160000
C      -48.12400000     -33.63000000     -73.21860000
C      -47.87730000     -32.34830000     -72.85680000
C      -48.14110000     -31.93730000     -71.57140000
C      -48.72070000     -32.83730000     -70.69050000
C      -48.88860000     -34.21500000     -71.05490000
H      -48.79520000     -35.66320000     -72.66270000
H      -47.54210000     -31.69260000     -73.66960000
H      -49.10750000     -32.53550000     -69.67610000
H      -49.22070000     -35.01770000     -70.37710000
C      -48.11050000     -30.43130000     -71.31410000
H      -49.16010000     -30.03980000     -71.27200000
H      -47.54410000     -30.02370000     -72.18090000
C      -47.79390000     -34.20750000     -74.60660000
H      -48.73560000     -34.64080000     -75.03730000
H      -47.47800000     -33.36710000     -75.31120000
S      -47.23580000     -30.01740000     -69.74500000
S      -46.39320000     -35.54220000     -74.55470000
C      -45.48890000     -30.59640000     -70.13030000
H      -45.26870000     -30.27920000     -71.12510000
H      -44.82760000     -30.12710000     -69.36050000
C      -45.09900000     -34.73860000     -73.45290000
H      -45.06770000     -33.64340000     -73.49010000
H      -44.08220000     -35.12550000     -73.75170000
C      -45.33090000     -35.06860000     -71.90200000
H      -46.05220000     -34.29440000     -71.44490000
H      -45.73080000     -36.11200000     -71.79080000
C      -45.32090000     -32.18830000     -70.02820000
H      -45.57430000     -32.66100000     -70.99120000
H      -46.01710000     -32.54980000     -69.27580000
C      -43.93650000     -32.67120000     -69.74770000
C      -42.89410000     -31.92640000     -69.20240000
C      -43.43750000     -33.88240000     -70.33550000
H      -42.97310000     -30.96370000     -68.70700000
C      -42.13080000     -34.11450000     -70.04800000
C      -43.94960000     -35.02420000     -71.18160000
C      -42.98050000     -35.89890000     -71.52850000
S      -41.33390000     -32.79460000     -69.16780000
S      -41.39200000     -35.53880000     -70.75890000
H      -43.06060000     -36.81530000     -72.05270000
