40
Properties=species:S:1:pos:R:3 #=T CELL(abcABC):=T 1.889726e+02=T 90.00000=T Traj:=T positionsangstrom=T Step:=T 0=T Bead:=T pbc="F F F"
C      -49.01850000     -34.05070000     -71.87660000
C      -48.27750000     -33.40290000     -72.85700000
C      -47.90570000     -32.04720000     -72.62170000
C      -48.29790000     -31.38560000     -71.42300000
C      -48.97950000     -32.05680000     -70.41980000
C      -49.41950000     -33.35750000     -70.74450000
H      -49.34610000     -35.05420000     -72.02390000
H      -47.28290000     -31.48070000     -73.33040000
H      -49.32370000     -31.47330000     -69.62180000
H      -50.01550000     -33.92760000     -69.99260000
C      -47.85920000     -29.97860000     -71.24790000
H      -48.67760000     -29.43230000     -70.79560000
H      -47.53980000     -29.50480000     -72.15240000
C      -48.05910000     -34.01180000     -74.22490000
H      -49.02570000     -34.35670000     -74.62890000
H      -47.59100000     -33.24970000     -74.90000000
S      -46.46890000     -29.78990000     -69.97520000
S      -47.00780000     -35.50870000     -74.18220000
C      -45.00990000     -30.67050000     -70.74130000
H      -45.03890000     -30.39720000     -71.81110000
H      -44.01660000     -30.27470000     -70.35730000
C      -45.44100000     -34.97520000     -73.29750000
H      -45.40080000     -33.92320000     -73.30890000
H      -44.57060000     -35.33280000     -73.86960000
C      -45.27080000     -35.45550000     -71.86790000
H      -45.85700000     -34.93890000     -71.14180000
H      -45.53860000     -36.46550000     -71.84510000
C      -45.04190000     -32.14900000     -70.50180000
H      -45.56780000     -32.66500000     -71.37340000
H      -45.67350000     -32.40030000     -69.70130000
C      -43.69070000     -32.79050000     -70.29970000
C      -42.72310000     -32.23150000     -69.51460000
C      -43.26290000     -34.16210000     -70.67220000
H      -42.94820000     -31.31280000     -68.87000000
C      -41.94900000     -34.44340000     -70.27090000
C      -43.83630000     -35.25360000     -71.43360000
C      -43.06950000     -36.36570000     -71.42240000
S      -41.25850000     -33.17280000     -69.30790000
S      -41.48960000     -36.06550000     -70.70490000
H      -43.27490000     -37.34770000     -71.78740000
