40
Properties=species:S:1:pos:R:3 #=T CELL(abcABC):=T 1.889726e+02=T 90.00000=T Traj:=T positionsangstrom=T Step:=T 0=T Bead:=T pbc="F F F"
C      -48.83090000     -34.69160000     -72.69310000
C      -48.01190000     -33.95950000     -73.55890000
C      -47.69030000     -32.68480000     -73.09630000
C      -48.24050000     -32.15830000     -71.87710000
C      -48.97290000     -33.00470000     -70.99310000
C      -49.25420000     -34.32880000     -71.44370000
H      -49.10460000     -35.71390000     -73.01550000
H      -47.00250000     -32.06560000     -73.70250000
H      -49.24610000     -32.53610000     -69.97820000
H      -49.78910000     -34.94220000     -70.82770000
C      -47.91020000     -30.71460000     -71.48970000
H      -48.65970000     -30.09030000     -71.98260000
H      -47.04500000     -30.44260000     -72.06390000
C      -47.53780000     -34.42970000     -74.89590000
H      -48.34390000     -35.02440000     -75.31830000
H      -47.37100000     -33.53480000     -75.47840000
S      -47.74270000     -30.49830000     -69.67500000
S      -45.94440000     -35.43950000     -74.74930000
C      -45.93730000     -30.81220000     -69.50890000
H      -45.50720000     -29.83130000     -69.62480000
H      -45.82420000     -31.03170000     -68.43780000
C      -44.94210000     -34.32270000     -73.75250000
H      -45.20400000     -33.28490000     -74.03700000
H      -43.91950000     -34.50880000     -74.14000000
C      -44.89870000     -34.75470000     -72.24070000
H      -45.67670000     -34.15270000     -71.81700000
H      -45.08460000     -35.81280000     -72.21050000
C      -45.31120000     -31.95520000     -70.28200000
H      -45.10030000     -31.76310000     -71.35520000
H      -46.09620000     -32.69830000     -70.22060000
C      -44.05880000     -32.60280000     -69.74940000
C      -43.39590000     -32.17310000     -68.63600000
C      -43.28940000     -33.65220000     -70.37070000
H      -43.57110000     -31.19240000     -68.23390000
C      -42.07040000     -33.85980000     -69.78270000
C      -43.49080000     -34.62110000     -71.43590000
C      -42.45080000     -35.46670000     -71.58220000
S      -41.80060000     -32.86780000     -68.42400000
S      -41.09640000     -35.16230000     -70.48920000
H      -42.46180000     -36.28440000     -72.30880000
