40
Properties=species:S:1:pos:R:3 #=T CELL(abcABC):=T 1.889726e+02=T 90.00000=T Traj:=T positionsangstrom=T Step:=T 0=T Bead:=T pbc="F F F"
C      -48.73750000     -36.06250000     -71.71300000
C      -48.57580000     -34.88590000     -72.41340000
C      -48.60420000     -33.66850000     -71.69660000
C      -48.78030000     -33.58890000     -70.32410000
C      -49.15610000     -34.78690000     -69.69780000
C      -49.07160000     -36.00300000     -70.38080000
H      -48.58600000     -37.02140000     -72.25780000
H      -48.35990000     -32.74600000     -72.30190000
H      -49.47960000     -34.62440000     -68.66660000
H      -49.13540000     -36.96600000     -69.93070000
C      -48.65860000     -32.36590000     -69.44220000
H      -48.41730000     -32.69920000     -68.38350000
H      -49.64100000     -31.84820000     -69.36910000
C      -48.32740000     -34.87020000     -73.93800000
H      -48.05860000     -35.84980000     -74.23020000
H      -49.21810000     -34.66060000     -74.52040000
S      -47.31440000     -31.21250000     -70.10890000
S      -47.02430000     -33.79240000     -74.54660000
C      -45.66450000     -31.81390000     -69.60330000
H      -45.39490000     -31.60660000     -68.56170000
H      -45.54380000     -32.86320000     -69.77270000
C      -45.47250000     -34.40820000     -73.73230000
H      -44.75470000     -34.15320000     -74.49580000
H      -45.53710000     -35.49470000     -73.65690000
C      -45.13890000     -33.76710000     -72.36660000
H      -45.53940000     -32.69610000     -72.45450000
H      -45.72560000     -34.29450000     -71.53340000
C      -44.58260000     -31.08130000     -70.45170000
H      -44.55680000     -29.96600000     -70.25260000
H      -44.84610000     -31.15330000     -71.53290000
C      -43.19540000     -31.70610000     -70.27870000
C      -42.23910000     -31.17260000     -69.50890000
C      -42.86890000     -32.90190000     -71.00800000
H      -42.28360000     -30.24030000     -68.97020000
C      -41.52430000     -33.18410000     -70.86100000
C      -43.60220000     -33.83200000     -71.86400000
C      -42.71480000     -34.82950000     -72.24220000
S      -40.79150000     -32.15580000     -69.68200000
S      -41.12620000     -34.72970000     -71.54410000
H      -42.95830000     -35.68120000     -72.82180000
