40
Properties=species:S:1:pos:R:3 #=T CELL(abcABC):=T 1.889726e+02=T 90.00000=T Traj:=T positionsangstrom=T Step:=T 0=T Bead:=T pbc="F F F"
C      -48.80100000     -34.68130000     -73.79590000
C      -47.99270000     -33.56370000     -73.98490000
C      -48.04530000     -32.46500000     -73.12740000
C      -48.97890000     -32.45240000     -72.07670000
C      -49.66760000     -33.62980000     -71.75970000
C      -49.59560000     -34.72960000     -72.61930000
H      -48.61570000     -35.62040000     -74.23680000
H      -47.46750000     -31.58230000     -73.44120000
H      -50.26340000     -33.52150000     -70.91850000
H      -50.09030000     -35.64030000     -72.40990000
C      -49.07050000     -31.23710000     -71.18350000
H      -50.08780000     -31.37840000     -70.67830000
H      -49.15340000     -30.33890000     -71.83210000
C      -46.93060000     -33.62710000     -75.00750000
H      -47.30760000     -33.81960000     -75.99320000
H      -46.40340000     -32.67380000     -75.02570000
S      -47.89300000     -31.28090000     -69.81660000
S      -45.62490000     -34.94220000     -74.67410000
C      -46.21880000     -31.91290000     -70.39320000
H      -46.52140000     -32.42030000     -71.33020000
H      -45.58100000     -31.04850000     -70.53320000
C      -44.19620000     -34.25020000     -73.70960000
H      -44.12710000     -33.16780000     -73.88490000
H      -43.29760000     -34.66020000     -74.08410000
C      -44.30480000     -34.68630000     -72.20540000
H      -45.24040000     -34.37300000     -71.69690000
H      -44.34200000     -35.72970000     -72.20130000
C      -45.74080000     -32.77120000     -69.27590000
H      -46.27270000     -33.69230000     -69.44440000
H      -46.11530000     -32.36070000     -68.34370000
C      -44.18900000     -32.90320000     -69.15610000
C      -43.59700000     -32.60800000     -67.92680000
C      -43.19680000     -33.67090000     -69.93860000
H      -43.97770000     -32.04040000     -67.08190000
C      -41.92700000     -33.64030000     -69.43740000
C      -43.13090000     -34.17950000     -71.31990000
C      -41.86370000     -34.50780000     -71.72390000
S      -41.90210000     -32.98140000     -67.82020000
S      -40.68780000     -34.13750000     -70.52590000
H      -41.55340000     -34.97690000     -72.61180000
