40
Properties=species:S:1:pos:R:3 #=T CELL(abcABC):=T 1.889726e+02=T 90.00000=T Traj:=T positionsangstrom=T Step:=T 0=T Bead:=T pbc="F F F"
C      -48.44180000     -31.30080000     -71.67280000
C      -47.55830000     -31.96670000     -70.80420000
C      -47.26620000     -33.33910000     -70.88160000
C      -47.71970000     -34.11140000     -71.96250000
C      -48.40360000     -33.41850000     -72.96820000
C      -48.71900000     -32.06730000     -72.86870000
H      -48.67550000     -30.23780000     -71.58880000
H      -46.64650000     -33.69500000     -70.06860000
H      -48.79380000     -34.02860000     -73.79350000
H      -49.18270000     -31.62600000     -73.68240000
C      -47.13960000     -35.46390000     -72.26670000
H      -48.10210000     -36.04950000     -72.36240000
H      -46.49230000     -35.88330000     -71.50400000
C      -47.05620000     -31.26110000     -69.56780000
H      -47.84520000     -30.77130000     -68.91230000
H      -46.53200000     -31.91850000     -68.85410000
S      -46.29080000     -35.60800000     -73.86600000
S      -46.00340000     -29.73680000     -69.84980000
C      -45.51320000     -33.97050000     -74.09490000
H      -45.62840000     -33.69360000     -75.13260000
H      -45.92480000     -33.18880000     -73.50680000
C      -44.52210000     -29.99130000     -70.96020000
H      -43.74610000     -29.61750000     -70.31990000
H      -44.56190000     -29.30570000     -71.75090000
C      -44.24370000     -31.36670000     -71.49870000
H      -45.15400000     -31.68940000     -71.97290000
H      -43.52490000     -31.29030000     -72.33970000
C      -43.98450000     -34.04010000     -73.73980000
H      -43.60840000     -33.07860000     -74.01460000
H      -43.73310000     -34.76050000     -74.49850000
C      -43.60780000     -34.54920000     -72.35260000
C      -43.16940000     -35.79760000     -72.21470000
C      -43.66700000     -33.86860000     -71.04160000
H      -43.01560000     -36.64040000     -72.96560000
C      -43.41250000     -34.78600000     -70.05410000
C      -43.86910000     -32.51530000     -70.55650000
C      -43.68710000     -32.39830000     -69.20180000
S      -42.84880000     -36.30380000     -70.59600000
S      -43.37290000     -33.99960000     -68.49450000
H      -43.77580000     -31.39860000     -68.67120000
