40
Properties=species:S:1:pos:R:3 #=T CELL(abcABC):=T 1.889726e+02=T 90.00000=T Traj:=T positionsangstrom=T Step:=T 0=T Bead:=T pbc="F F F"
C      -48.70020000     -31.42440000     -70.94520000
C      -47.51340000     -31.98800000     -70.50600000
C      -47.04070000     -33.15430000     -71.07230000
C      -47.81000000     -33.83680000     -72.04520000
C      -49.06060000     -33.30770000     -72.51970000
C      -49.47460000     -32.09530000     -71.93560000
H      -49.00310000     -30.45520000     -70.60530000
H      -45.99390000     -33.53860000     -70.83290000
H      -49.60770000     -33.79250000     -73.30260000
H      -50.38840000     -31.63270000     -72.24120000
C      -47.12660000     -35.01720000     -72.76470000
H      -47.80030000     -35.84530000     -73.03830000
H      -46.42190000     -35.52910000     -72.13410000
C      -46.82280000     -31.14080000     -69.43290000
H      -47.49150000     -30.72910000     -68.66050000
H      -46.09930000     -31.80030000     -68.88880000
S      -46.30190000     -34.44330000     -74.35770000
S      -45.84270000     -29.86070000     -70.31910000
C      -45.13320000     -32.96150000     -73.96800000
H      -44.93710000     -32.34140000     -74.85220000
H      -45.61460000     -32.30960000     -73.21980000
C      -44.09360000     -30.26840000     -70.08310000
H      -43.92650000     -30.34980000     -69.06520000
H      -43.63480000     -29.33990000     -70.38340000
C      -43.54790000     -31.53630000     -70.81050000
H      -44.07420000     -31.58830000     -71.76070000
H      -42.53090000     -31.28580000     -71.00240000
C      -43.71690000     -33.35780000     -73.51690000
H      -43.13980000     -32.46360000     -73.28550000
H      -43.17840000     -33.81810000     -74.28220000
C      -43.54890000     -34.33330000     -72.40950000
C      -43.43830000     -35.65420000     -72.66110000
C      -43.55280000     -34.07670000     -70.96360000
H      -43.22610000     -36.14450000     -73.57630000
C      -43.38480000     -35.25470000     -70.24790000
C      -43.64710000     -32.88490000     -70.14140000
C      -43.51930000     -33.23890000     -68.78510000
S      -43.31780000     -36.67240000     -71.29040000
S      -43.51310000     -35.02550000     -68.51810000
H      -43.37520000     -32.77890000     -67.84650000
