40
Properties=species:S:1:pos:R:3 #=T CELL(abcABC):=T 1.889726e+02=T 90.00000=T Traj:=T positionsangstrom=T Step:=T 0=T Bead:=T pbc="F F F"
C      -43.21910000     -36.80500000     -71.21180000
C      -43.94800000     -36.47890000     -70.07940000
C      -43.51260000     -35.40030000     -69.29690000
C      -42.32720000     -34.71540000     -69.53300000
C      -41.73600000     -34.93720000     -70.75670000
C      -42.13070000     -36.00540000     -71.59110000
H      -43.37830000     -37.72400000     -71.81410000
H      -44.05320000     -35.02810000     -68.38960000
H      -40.86030000     -34.35520000     -71.16380000
H      -41.44690000     -36.23970000     -72.40800000
C      -41.84030000     -33.51070000     -68.64000000
H      -40.82390000     -33.39000000     -68.91940000
H      -41.92000000     -33.81930000     -67.54170000
C      -45.26190000     -37.21800000     -69.68630000
H      -45.54110000     -37.99560000     -70.47370000
H      -45.07850000     -37.71050000     -68.73590000
S      -42.75520000     -31.86860000     -68.83330000
S      -46.82170000     -36.12330000     -69.53660000
C      -43.45090000     -31.94310000     -70.57550000
H      -42.83220000     -31.31520000     -71.24310000
H      -43.34740000     -33.01870000     -70.81270000
C      -46.84390000     -35.16920000     -71.13760000
H      -47.16570000     -35.78760000     -72.02150000
H      -45.76190000     -34.94790000     -71.29620000
C      -47.65810000     -33.87050000     -70.89340000
H      -48.63160000     -34.22080000     -70.54920000
H      -47.28590000     -33.33340000     -70.08290000
C      -44.94760000     -31.54160000     -70.56980000
H      -44.97820000     -30.63780000     -70.11100000
H      -45.54770000     -32.20900000     -69.96630000
C      -45.56380000     -31.32120000     -71.98880000
C      -45.06950000     -30.37580000     -72.85140000
C      -46.81460000     -31.98210000     -72.43980000
H      -44.29020000     -29.65420000     -72.65360000
C      -47.22390000     -31.30690000     -73.62420000
C      -47.80380000     -33.02440000     -72.06550000
C      -48.80940000     -33.12860000     -73.00940000
S      -46.08210000     -30.21800000     -74.30250000
S      -48.73360000     -31.92420000     -74.19720000
H      -49.72090000     -33.70160000     -72.83830000
