40
Properties=species:S:1:pos:R:3 #=T CELL(abcABC):=T 1.889726e+02=T 90.00000=T Traj:=T positionsangstrom=T Step:=T 0=T Bead:=T pbc="F F F"
C      -44.78550000     -35.80220000     -71.17860000
C      -46.18910000     -35.74100000     -71.09910000
C      -46.78200000     -34.95070000     -70.08980000
C      -45.97090000     -34.39310000     -69.08620000
C      -44.57990000     -34.56920000     -69.06360000
C      -44.02690000     -35.29700000     -70.10540000
H      -44.30460000     -36.32370000     -71.99210000
H      -47.88770000     -34.96720000     -70.01530000
H      -43.98410000     -34.08900000     -68.28350000
H      -42.88040000     -35.35240000     -70.23840000
C      -46.62270000     -33.62910000     -67.99710000
H      -46.15680000     -33.76820000     -67.01150000
H      -47.64680000     -33.92380000     -67.96360000
C      -47.05780000     -36.35860000     -72.14490000
H      -46.73770000     -37.39010000     -72.38540000
H      -47.97420000     -36.45520000     -71.66790000
S      -46.56570000     -31.73900000     -68.13840000
S      -46.94850000     -35.38770000     -73.73890000
C      -47.17360000     -31.31870000     -69.75760000
H      -47.61230000     -32.21870000     -70.13990000
H      -48.00200000     -30.50940000     -69.56150000
C      -47.61180000     -33.75580000     -73.17090000
H      -47.69910000     -33.77520000     -72.12540000
H      -48.72490000     -33.60930000     -73.54040000
C      -46.82310000     -32.54950000     -73.65450000
H      -46.90930000     -32.38080000     -74.68350000
H      -47.22540000     -31.65080000     -73.21350000
C      -46.15190000     -30.56140000     -70.64560000
H      -45.67390000     -29.77360000     -70.03580000
H      -46.61420000     -30.20280000     -71.55910000
C      -44.97320000     -31.48090000     -70.94530000
C      -43.84520000     -31.27340000     -70.17400000
C      -44.70050000     -32.27390000     -72.12830000
H      -43.81610000     -30.89080000     -69.13730000
C      -43.34500000     -32.72330000     -72.14640000
C      -45.32590000     -32.64950000     -73.33300000
C      -44.43880000     -33.26470000     -74.19240000
S      -42.46200000     -32.22450000     -70.74900000
S      -42.82810000     -33.52450000     -73.64240000
H      -44.71720000     -33.77910000     -75.11310000
