40
Properties=species:S:1:pos:R:3 #=T CELL(abcABC):=T 1.889726e+02=T 90.00000=T Traj:=T positionsangstrom=T Step:=T 0=T Bead:=T pbc="F F F"
C      -44.57700000     -35.66080000     -70.97530000
C      -45.98410000     -35.70730000     -71.02860000
C      -46.76940000     -35.02380000     -70.08240000
C      -46.09540000     -34.34140000     -69.08330000
C      -44.71780000     -34.50180000     -68.90780000
C      -43.95200000     -35.06200000     -69.94340000
H      -43.93860000     -36.19820000     -71.69890000
H      -47.82260000     -34.99100000     -70.05440000
H      -44.12910000     -34.19860000     -68.08650000
H      -42.87350000     -35.03410000     -69.82030000
C      -46.83990000     -33.57870000     -68.02120000
H      -46.48740000     -33.88320000     -67.09910000
H      -47.92630000     -33.67080000     -68.04660000
C      -46.66320000     -36.44900000     -72.13620000
H      -46.04680000     -37.26900000     -72.47380000
H      -47.61270000     -36.90890000     -71.90920000
S      -46.47060000     -31.70250000     -68.10220000
S      -46.82100000     -35.48570000     -73.68700000
C      -47.12350000     -31.33700000     -69.87040000
H      -47.52670000     -32.35040000     -70.25080000
H      -47.97270000     -30.72540000     -69.77540000
C      -47.77110000     -33.95090000     -73.11490000
H      -48.01860000     -34.12970000     -72.05810000
H      -48.66780000     -33.87810000     -73.55630000
C      -46.99580000     -32.63920000     -73.25570000
H      -47.36040000     -31.98910000     -74.08000000
H      -47.24940000     -31.99790000     -72.41550000
C      -46.07610000     -30.63890000     -70.61150000
H      -45.70280000     -29.73610000     -70.07060000
H      -46.55040000     -30.26340000     -71.60450000
C      -44.82770000     -31.38850000     -71.00210000
C      -43.74540000     -31.34530000     -70.22180000
C      -44.68400000     -32.24660000     -72.14690000
H      -43.74320000     -30.59270000     -69.44240000
C      -43.38780000     -32.65140000     -72.33310000
C      -45.49160000     -32.72810000     -73.27230000
C      -44.82980000     -33.32530000     -74.25760000
S      -42.37080000     -32.08580000     -70.95560000
S      -43.08350000     -33.59320000     -73.79970000
H      -45.26990000     -33.70310000     -75.17540000
