40
Properties=species:S:1:pos:R:3 #=T CELL(abcABC):=T 1.889726e+02=T 90.00000=T Traj:=T positionsangstrom=T Step:=T 0=T Bead:=T pbc="F F F"
C      -44.47170000     -35.84560000     -70.94650000
C      -45.85920000     -35.80800000     -70.98330000
C      -46.61060000     -35.06140000     -70.07420000
C      -45.94150000     -34.41990000     -68.98290000
C      -44.55280000     -34.56560000     -68.93220000
C      -43.82470000     -35.23610000     -69.87630000
H      -43.89120000     -36.26050000     -71.76710000
H      -47.67150000     -35.03520000     -70.07080000
H      -44.01020000     -34.12950000     -68.02850000
H      -42.79540000     -35.44260000     -69.79780000
C      -46.68180000     -33.59740000     -67.96760000
H      -46.32540000     -33.82040000     -66.93010000
H      -47.68130000     -33.99000000     -67.90070000
C      -46.65950000     -36.56440000     -72.05180000
H      -45.98520000     -37.19340000     -72.61610000
H      -47.44730000     -37.13570000     -71.58510000
S      -46.55130000     -31.73790000     -68.14500000
S      -47.41030000     -35.57680000     -73.35330000
C      -47.10200000     -31.65440000     -69.95000000
H      -47.16110000     -32.62790000     -70.15960000
H      -48.16780000     -31.35110000     -69.90810000
C      -47.61250000     -33.84040000     -72.72820000
H      -47.35990000     -33.75390000     -71.72230000
H      -48.70270000     -33.61890000     -72.91380000
C      -46.89760000     -32.70000000     -73.50290000
H      -47.15110000     -32.72100000     -74.55670000
H      -47.23940000     -31.78950000     -72.99160000
C      -46.30250000     -30.72020000     -70.83180000
H      -46.13550000     -29.71990000     -70.34360000
H      -46.89320000     -30.46200000     -71.74090000
C      -44.98320000     -31.27670000     -71.20930000
C      -43.80130000     -30.82450000     -70.59420000
C      -44.71430000     -32.16830000     -72.30030000
H      -43.70190000     -30.19620000     -69.65040000
C      -43.37820000     -32.57660000     -72.29040000
C      -45.43600000     -32.79700000     -73.42950000
C      -44.56070000     -33.55060000     -74.20890000
S      -42.34690000     -31.62540000     -71.21980000
S      -42.91920000     -33.63050000     -73.60110000
H      -44.84920000     -34.19040000     -75.00770000
