40
Properties=species:S:1:pos:R:3 #=T CELL(abcABC):=T 1.889726e+02=T 90.00000=T Traj:=T positionsangstrom=T Step:=T 0=T Bead:=T pbc="F F F"
C      -45.83150000     -36.76990000     -73.36570000
C      -46.15190000     -35.50600000     -73.84650000
C      -47.16020000     -34.75260000     -73.19760000
C      -47.91500000     -35.23320000     -72.13640000
C      -47.64240000     -36.56550000     -71.78930000
C      -46.55840000     -37.27980000     -72.27360000
H      -45.09640000     -37.31920000     -73.91490000
H      -47.45300000     -33.77850000     -73.62340000
H      -48.28520000     -36.99480000     -70.98920000
H      -46.36290000     -38.32490000     -71.97090000
C      -48.94130000     -34.34830000     -71.52790000
H      -49.95120000     -34.59610000     -71.90260000
H      -48.89340000     -33.33860000     -71.99680000
C      -45.40050000     -35.03020000     -75.06440000
H      -45.49560000     -35.76230000     -75.95680000
H      -45.86660000     -34.11580000     -75.43490000
S      -48.89290000     -34.24310000     -69.66980000
S      -43.56080000     -35.05760000     -74.71370000
C      -47.52780000     -33.03660000     -69.36640000
H      -47.69900000     -32.14480000     -70.02510000
H      -47.65300000     -32.66250000     -68.37330000
C      -43.40300000     -33.54110000     -73.68320000
H      -43.92680000     -32.72900000     -74.19040000
H      -42.34560000     -33.30410000     -73.67540000
C      -43.92820000     -33.63430000     -72.26700000
H      -44.99460000     -33.67570000     -72.42520000
H      -43.51710000     -34.52480000     -71.79720000
C      -46.06880000     -33.63150000     -69.33630000
H      -45.75960000     -34.08130000     -70.30440000
H      -45.92400000     -34.34420000     -68.54320000
C      -45.12750000     -32.41110000     -69.14910000
C      -45.23770000     -31.64480000     -68.00370000
C      -44.14500000     -31.93190000     -70.09170000
H      -45.87710000     -31.87320000     -67.20510000
C      -43.54930000     -30.78040000     -69.63750000
C      -43.62380000     -32.35190000     -71.45990000
C      -42.73730000     -31.36920000     -71.85480000
S      -44.08860000     -30.27400000     -68.01600000
S      -42.28720000     -30.15270000     -70.68060000
H      -42.15780000     -31.53880000     -72.72500000
