40
Properties=species:S:1:pos:R:3 #=T CELL(abcABC):=T 1.889726e+02=T 90.00000=T Traj:=T positionsangstrom=T Step:=T 0=T Bead:=T pbc="F F F"
C      -46.07560000     -36.73050000     -73.11320000
C      -46.31980000     -35.46400000     -73.65400000
C      -47.29360000     -34.70400000     -73.09150000
C      -47.98120000     -35.09080000     -71.96610000
C      -47.68980000     -36.27170000     -71.31450000
C      -46.71390000     -37.05060000     -71.92220000
H      -45.26320000     -37.30910000     -73.50050000
H      -47.41090000     -33.70880000     -73.42450000
H      -48.09570000     -36.48830000     -70.29830000
H      -46.46490000     -38.00620000     -71.48290000
C      -49.10160000     -34.20360000     -71.56880000
H      -50.01020000     -34.75950000     -71.70230000
H      -49.01110000     -33.24390000     -72.02300000
C      -45.60610000     -34.93210000     -74.88950000
H      -45.76970000     -35.61410000     -75.80700000
H      -45.88590000     -33.87070000     -75.03340000
S      -49.12500000     -33.88630000     -69.74760000
S      -43.76700000     -34.95120000     -74.65000000
C      -47.73880000     -32.69080000     -69.74420000
H      -47.97900000     -31.99830000     -70.58470000
H      -47.70100000     -32.09920000     -68.83170000
C      -43.42080000     -33.22050000     -73.93430000
H      -43.60530000     -32.44110000     -74.67980000
H      -42.35200000     -33.20480000     -73.77240000
C      -44.25880000     -32.96470000     -72.67290000
H      -45.13610000     -32.45840000     -72.93610000
H      -44.52960000     -33.91700000     -72.24490000
C      -46.31880000     -33.32200000     -69.94110000
H      -46.15330000     -33.64410000     -70.92740000
H      -46.30410000     -34.14450000     -69.22860000
C      -45.24580000     -32.38780000     -69.48280000
C      -45.16530000     -31.88880000     -68.21130000
C      -44.07480000     -32.01700000     -70.26270000
H      -45.90010000     -31.83380000     -67.41060000
C      -43.22320000     -31.18160000     -69.57370000
C      -43.55010000     -32.23390000     -71.58100000
C      -42.32080000     -31.67640000     -71.76130000
S      -43.66020000     -31.04090000     -67.92140000
S      -41.77820000     -30.67130000     -70.47290000
H      -41.87190000     -31.50710000     -72.77270000
