40
Properties=species:S:1:pos:R:3 #=T CELL(abcABC):=T 1.889726e+02=T 90.00000=T Traj:=T positionsangstrom=T Step:=T 0=T Bead:=T pbc="F F F"
C      -46.25670000     -37.35760000     -73.62050000
C      -46.10720000     -35.92720000     -73.85640000
C      -47.08080000     -35.15690000     -73.17560000
C      -47.95840000     -35.53220000     -72.16730000
C      -47.81090000     -36.85710000     -71.77930000
C      -47.01440000     -37.70280000     -72.48320000
H      -45.62550000     -38.04730000     -74.15310000
H      -47.03000000     -34.08340000     -73.50800000
H      -48.29690000     -37.22140000     -70.89120000
H      -47.06510000     -38.82540000     -72.28410000
C      -48.93040000     -34.58090000     -71.52790000
H      -49.92800000     -34.78000000     -71.74600000
H      -48.88830000     -33.61560000     -72.01210000
C      -45.25000000     -35.29690000     -74.87360000
H      -45.23930000     -36.07740000     -75.62440000
H      -45.64120000     -34.36240000     -75.24180000
S      -48.61710000     -34.45400000     -69.64990000
S      -43.45150000     -35.13260000     -74.12790000
C      -47.51010000     -32.97100000     -69.51630000
H      -47.62090000     -32.36230000     -70.43080000
H      -47.74110000     -32.34340000     -68.65720000
C      -43.26120000     -33.37620000     -73.56570000
H      -43.52910000     -32.62030000     -74.30780000
H      -42.20920000     -33.34440000     -73.47130000
C      -44.06420000     -33.27440000     -72.31780000
H      -45.15310000     -33.17300000     -72.47680000
H      -43.80200000     -34.08970000     -71.73020000
C      -46.03750000     -33.40330000     -69.36190000
H      -45.76520000     -34.14060000     -70.08870000
H      -45.96800000     -33.95500000     -68.40770000
C      -45.19040000     -32.20670000     -69.32260000
C      -45.31820000     -31.38170000     -68.20750000
C      -44.13280000     -31.71410000     -70.19400000
H      -46.05050000     -31.48910000     -67.36900000
C      -43.51780000     -30.56150000     -69.67000000
C      -43.57390000     -32.08200000     -71.45060000
C      -42.59560000     -31.19950000     -71.83420000
S      -44.18490000     -29.99490000     -68.21010000
S      -42.32100000     -29.83820000     -70.76370000
H      -41.94480000     -31.26270000     -72.69190000
