40
Properties=species:S:1:pos:R:3 #=T CELL(abcABC):=T 1.889726e+02=T 90.00000=T Traj:=T positionsangstrom=T Step:=T 0=T Bead:=T pbc="F F F"
C      -45.89530000     -36.54700000     -72.99100000
C      -46.26550000     -35.34480000     -73.67060000
C      -47.43160000     -34.72750000     -73.26670000
C      -48.12960000     -35.14730000     -72.08730000
C      -47.76310000     -36.37930000     -71.52620000
C      -46.64140000     -37.12840000     -71.95010000
H      -45.01000000     -37.07130000     -73.44870000
H      -47.82980000     -33.88600000     -73.84980000
H      -48.25870000     -36.86030000     -70.73110000
H      -46.41470000     -38.12020000     -71.56410000
C      -49.30620000     -34.40360000     -71.41930000
H      -50.22630000     -35.08050000     -71.43280000
H      -49.59000000     -33.40150000     -71.91920000
C      -45.49730000     -34.93410000     -74.94470000
H      -45.75770000     -35.67950000     -75.64850000
H      -45.81170000     -34.06960000     -75.43800000
S      -49.14050000     -33.91210000     -69.66510000
S      -43.67360000     -34.94550000     -74.84580000
C      -47.69860000     -32.78270000     -69.53230000
H      -47.89410000     -31.83520000     -70.04760000
H      -47.64870000     -32.54540000     -68.45180000
C      -43.43030000     -33.39680000     -73.93630000
H      -43.88470000     -32.62020000     -74.54590000
H      -42.29680000     -33.26520000     -73.87000000
C      -44.06730000     -33.30820000     -72.47570000
H      -45.18710000     -33.23420000     -72.62340000
H      -43.79100000     -34.35520000     -71.92070000
C      -46.30480000     -33.27710000     -69.95130000
H      -46.23900000     -33.32120000     -71.00340000
H      -46.25240000     -34.33430000     -69.52270000
C      -45.15840000     -32.49070000     -69.40320000
C      -45.08270000     -32.03390000     -68.14270000
C      -44.04130000     -31.96190000     -70.21590000
H      -45.77740000     -32.27250000     -67.30960000
C      -43.19280000     -31.08200000     -69.53580000
C      -43.56590000     -32.17270000     -71.57000000
C      -42.38020000     -31.49560000     -71.80220000
S      -43.78910000     -30.83170000     -67.92850000
S      -41.81060000     -30.54260000     -70.46860000
H      -41.85400000     -31.46240000     -72.78630000
