40
Properties=species:S:1:pos:R:3 #=T CELL(abcABC):=T 1.889726e+02=T 90.00000=T Traj:=T positionsangstrom=T Step:=T 0=T Bead:=T pbc="F F F"
C      -45.99010000     -36.78430000     -73.31570000
C      -46.23700000     -35.47270000     -73.81880000
C      -47.21220000     -34.66640000     -73.22240000
C      -47.91770000     -35.11370000     -72.10990000
C      -47.57600000     -36.38300000     -71.59840000
C      -46.61010000     -37.22550000     -72.15270000
H      -45.15980000     -37.26380000     -73.72070000
H      -47.29230000     -33.62590000     -73.50400000
H      -48.02450000     -36.62550000     -70.60410000
H      -46.37670000     -38.23010000     -71.82480000
C      -49.07270000     -34.32800000     -71.40140000
H      -50.01750000     -34.84810000     -71.42680000
H      -48.94330000     -33.30070000     -71.75540000
C      -45.40730000     -34.98900000     -74.96090000
H      -45.48120000     -35.59770000     -75.82650000
H      -45.73930000     -34.00000000     -75.20750000
S      -48.96650000     -34.19030000     -69.59790000
S      -43.59850000     -34.93100000     -74.71890000
C      -47.61960000     -32.99360000     -69.49180000
H      -47.74130000     -32.19690000     -70.27370000
H      -47.72750000     -32.47810000     -68.51600000
C      -43.41330000     -33.39840000     -73.78430000
H      -43.93010000     -32.52360000     -74.29430000
H      -42.36500000     -33.20520000     -73.79660000
C      -43.86430000     -33.56200000     -72.33600000
H      -44.98400000     -33.81570000     -72.36940000
H      -43.42570000     -34.47950000     -71.89790000
C      -46.17470000     -33.59940000     -69.66540000
H      -46.04560000     -33.80340000     -70.76600000
H      -46.20990000     -34.51120000     -69.13370000
C      -45.09330000     -32.56700000     -69.31410000
C      -45.18620000     -31.88810000     -68.12020000
C      -44.13810000     -31.96610000     -70.24750000
H      -45.88860000     -32.14790000     -67.36150000
C      -43.47810000     -30.86460000     -69.64910000
C      -43.45790000     -32.37300000     -71.46830000
C      -42.42950000     -31.45090000     -71.77240000
S      -44.12290000     -30.49960000     -68.03590000
S      -42.17120000     -30.20810000     -70.58770000
H      -41.81780000     -31.52010000     -72.70220000
