40
Properties=species:S:1:pos:R:3 #=T CELL(abcABC):=T 1.889726e+02=T 90.00000=T Traj:=T positionsangstrom=T Step:=T 0=T Bead:=T pbc="F F F"
C      -46.24910000     -36.76600000     -73.17130000
C      -46.39910000     -35.48690000     -73.79650000
C      -47.40050000     -34.66570000     -73.26880000
C      -48.14570000     -34.96690000     -72.11410000
C      -47.96670000     -36.25750000     -71.51540000
C      -47.03620000     -37.18880000     -72.08370000
H      -45.45460000     -37.42570000     -73.53080000
H      -47.62930000     -33.64190000     -73.60880000
H      -48.58820000     -36.49420000     -70.62870000
H      -46.86050000     -38.18980000     -71.72340000
C      -49.16570000     -33.99020000     -71.68050000
H      -50.19940000     -34.29620000     -71.84970000
H      -48.87190000     -33.02420000     -72.05820000
C      -45.61600000     -34.88220000     -74.94610000
H      -45.76700000     -35.37480000     -75.85690000
H      -46.09700000     -33.91120000     -75.21040000
S      -49.21820000     -33.78120000     -69.85300000
S      -43.77350000     -34.84690000     -74.63950000
C      -47.73540000     -32.65800000     -69.50970000
H      -47.82180000     -31.64250000     -69.94790000
H      -47.79040000     -32.49920000     -68.39810000
C      -43.63010000     -33.22320000     -73.85190000
H      -43.93050000     -32.48450000     -74.59130000
H      -42.58980000     -33.15690000     -73.67840000
C      -44.34260000     -32.94420000     -72.58550000
H      -45.35640000     -32.53020000     -72.73640000
H      -44.61650000     -33.95410000     -72.18610000
C      -46.28850000     -33.20550000     -69.91240000
H      -46.18350000     -33.14690000     -71.06100000
H      -46.31870000     -34.26410000     -69.60320000
C      -45.11090000     -32.42610000     -69.33870000
C      -44.96660000     -31.95140000     -68.04730000
C      -43.96360000     -31.99680000     -70.19300000
H      -45.65630000     -32.13690000     -67.27040000
C      -42.98790000     -31.30530000     -69.46510000
C      -43.56690000     -32.19760000     -71.57270000
C      -42.33500000     -31.56110000     -71.80930000
S      -43.40480000     -31.26310000     -67.79550000
S      -41.56560000     -30.80620000     -70.43780000
H      -41.80260000     -31.63770000     -72.71660000
