40
Properties=species:S:1:pos:R:3 #=T CELL(abcABC):=T 1.889726e+02=T 90.00000=T Traj:=T positionsangstrom=T Step:=T 0=T Bead:=T pbc="F F F"
C      -46.01320000     -37.29030000     -73.46060000
C      -46.10780000     -35.89160000     -73.71130000
C      -47.27590000     -35.19960000     -73.21440000
C      -48.21250000     -35.87840000     -72.33860000
C      -47.91890000     -37.21290000     -71.97800000
C      -46.90950000     -37.92610000     -72.61710000
H      -45.21870000     -37.86080000     -73.90070000
H      -47.42310000     -34.11300000     -73.21600000
H      -48.57690000     -37.73420000     -71.29810000
H      -46.74040000     -38.97690000     -72.31410000
C      -49.15960000     -35.09480000     -71.49040000
H      -50.09980000     -35.55410000     -71.17640000
H      -49.50940000     -34.18310000     -71.98850000
C      -44.94890000     -35.20930000     -74.54490000
H      -44.78100000     -35.85740000     -75.43740000
H      -45.14940000     -34.18050000     -74.86690000
S      -48.40460000     -34.53340000     -69.87630000
S      -43.31490000     -35.34480000     -73.73680000
C      -46.96780000     -33.41320000     -70.34590000
H      -46.50950000     -33.84930000     -71.20910000
H      -47.32940000     -32.41250000     -70.56820000
C      -42.96300000     -33.65220000     -73.13340000
H      -43.28640000     -32.94090000     -73.92380000
H      -41.90080000     -33.46590000     -72.99110000
C      -43.60690000     -33.39290000     -71.82200000
H      -44.67420000     -33.59860000     -71.93390000
H      -43.27920000     -34.22030000     -71.14660000
C      -45.77470000     -33.45700000     -69.33920000
H      -45.07790000     -34.27500000     -69.57400000
H      -46.16090000     -33.72920000     -68.31680000
C      -45.20650000     -32.01910000     -69.22010000
C      -45.67970000     -31.07280000     -68.34190000
C      -44.12030000     -31.52640000     -70.10720000
H      -46.33120000     -31.07110000     -67.47130000
C      -43.77870000     -30.25820000     -69.75710000
C      -43.36380000     -32.00760000     -71.23950000
C      -42.61950000     -31.03640000     -71.80400000
S      -44.73230000     -29.54580000     -68.49460000
S      -42.60320000     -29.52570000     -70.85270000
H      -41.87660000     -31.32510000     -72.58280000
