40
Properties=species:S:1:pos:R:3 #=T CELL(abcABC):=T 1.889726e+02=T 90.00000=T Traj:=T positionsangstrom=T Step:=T 0=T Bead:=T pbc="F F F"
C      -43.49440000     -36.66550000     -71.19220000
C      -44.11320000     -36.34780000     -69.97170000
C      -43.51140000     -35.31330000     -69.18020000
C      -42.29940000     -34.70020000     -69.50250000
C      -41.62560000     -35.20590000     -70.65510000
C      -42.20200000     -36.17150000     -71.44080000
H      -44.04710000     -37.35950000     -71.91470000
H      -44.14990000     -34.97050000     -68.37340000
H      -40.66950000     -34.79650000     -70.93840000
H      -41.72790000     -36.60740000     -72.35290000
C      -41.82540000     -33.45000000     -68.70060000
H      -40.93020000     -32.98740000     -69.12200000
H      -41.64040000     -33.83180000     -67.66590000
C      -45.45220000     -36.93520000     -69.45980000
H      -45.72850000     -37.71580000     -70.15710000
H      -45.44020000     -37.33900000     -68.44530000
S      -43.16920000     -32.17020000     -68.58050000
S      -46.77210000     -35.59730000     -69.32670000
C      -43.68660000     -31.94640000     -70.36630000
H      -43.03310000     -31.15720000     -70.74070000
H      -43.40270000     -32.77010000     -70.97680000
C      -46.84840000     -34.83580000     -71.04280000
H      -47.02370000     -35.72760000     -71.70050000
H      -45.83590000     -34.53660000     -71.24500000
C      -47.95280000     -33.81350000     -71.01000000
H      -48.93840000     -34.31540000     -70.82070000
H      -47.94420000     -33.07900000     -70.22120000
C      -45.18320000     -31.61550000     -70.47880000
H      -45.52200000     -30.71430000     -69.82120000
H      -45.79510000     -32.44020000     -70.06590000
C      -45.57340000     -31.35040000     -71.94500000
C      -44.97580000     -30.50990000     -72.82460000
C      -46.76400000     -31.96080000     -72.55020000
H      -44.10050000     -29.95900000     -72.58510000
C      -46.97150000     -31.47960000     -73.84560000
C      -47.78990000     -32.97410000     -72.29090000
C      -48.68360000     -33.20150000     -73.28980000
S      -45.75960000     -30.33580000     -74.36610000
S      -48.31370000     -32.14980000     -74.68630000
H      -49.32860000     -34.06190000     -73.43860000
