40
Properties=species:S:1:pos:R:3 #=T CELL(abcABC):=T 1.889726e+02=T 90.00000=T Traj:=T positionsangstrom=T Step:=T 0=T Bead:=T pbc="F F F"
C      -45.95200000     -37.05380000     -73.64700000
C      -46.06180000     -35.69720000     -73.77530000
C      -47.08820000     -34.91940000     -73.15370000
C      -47.85520000     -35.58090000     -72.18750000
C      -47.74450000     -36.96510000     -72.03400000
C      -46.75790000     -37.67350000     -72.68540000
H      -45.27380000     -37.58700000     -74.17280000
H      -47.33740000     -33.85580000     -73.35670000
H      -48.33650000     -37.59020000     -71.39340000
H      -46.74790000     -38.77990000     -72.46590000
C      -48.95850000     -34.85310000     -71.42880000
H      -49.81630000     -35.55420000     -71.31700000
H      -49.08460000     -33.80590000     -71.72670000
C      -45.04830000     -35.05320000     -74.70630000
H      -45.26610000     -35.31660000     -75.77390000
H      -45.18830000     -34.02680000     -74.79520000
S      -48.50500000     -34.60660000     -69.63450000
S      -43.29920000     -35.41770000     -74.07620000
C      -47.35620000     -33.11610000     -69.80980000
H      -47.33640000     -32.85870000     -70.90310000
H      -47.73660000     -32.13390000     -69.35710000
C      -42.91000000     -33.80410000     -73.20610000
H      -42.94340000     -32.90730000     -73.85440000
H      -41.86210000     -33.89080000     -72.99660000
C      -43.79690000     -33.49420000     -71.94260000
H      -44.82510000     -33.61150000     -72.31500000
H      -43.66880000     -34.27030000     -71.16300000
C      -45.99770000     -33.40420000     -69.15540000
H      -45.46480000     -34.14880000     -69.77290000
H      -46.05520000     -33.92640000     -68.18080000
C      -45.22340000     -32.13400000     -69.15710000
C      -45.43530000     -31.22760000     -68.14900000
C      -44.23470000     -31.68430000     -70.10410000
H      -46.18750000     -31.54490000     -67.42850000
C      -43.86110000     -30.34910000     -69.87870000
C      -43.53100000     -32.12830000     -71.35160000
C      -42.61880000     -31.22950000     -71.81800000
S      -44.62560000     -29.72830000     -68.43800000
S      -42.65960000     -29.70720000     -70.92240000
H      -42.03190000     -31.27180000     -72.70280000
