40
Properties=species:S:1:pos:R:3 #=T CELL(abcABC):=T 1.889726e+02=T 90.00000=T Traj:=T positionsangstrom=T Step:=T 0=T Bead:=T pbc="F F F"
C      -46.13910000     -37.32530000     -73.52720000
C      -46.06600000     -35.93760000     -73.58150000
C      -47.07050000     -35.18500000     -72.99860000
C      -48.07480000     -35.83430000     -72.17730000
C      -48.03870000     -37.17650000     -72.04220000
C      -47.13390000     -37.92700000     -72.79120000
H      -45.26920000     -37.93700000     -73.84860000
H      -46.98400000     -34.13050000     -73.08300000
H      -48.75120000     -37.63820000     -71.31680000
H      -46.98210000     -38.94770000     -72.58760000
C      -49.02380000     -34.91680000     -71.40080000
H      -50.02300000     -35.27670000     -71.32270000
H      -49.15600000     -33.99220000     -71.86400000
C      -45.06700000     -35.28570000     -74.56740000
H      -45.04670000     -35.81480000     -75.50170000
H      -45.41740000     -34.24680000     -74.83160000
S      -48.51900000     -34.59670000     -69.62710000
S      -43.34910000     -35.25350000     -74.02110000
C      -47.63670000     -32.91220000     -69.72690000
H      -47.77180000     -32.46730000     -70.75660000
H      -47.98560000     -32.20240000     -68.94660000
C      -43.12290000     -33.51670000     -73.47480000
H      -43.33940000     -32.84830000     -74.31600000
H      -42.09150000     -33.45380000     -73.17120000
C      -43.92250000     -33.27780000     -72.20020000
H      -44.96730000     -33.34170000     -72.31500000
H      -43.77340000     -34.05890000     -71.48580000
C      -46.11560000     -33.20330000     -69.46250000
H      -45.79630000     -33.91890000     -70.26490000
H      -46.02660000     -33.68640000     -68.47670000
C      -45.27080000     -31.95840000     -69.38030000
C      -45.36500000     -31.17290000     -68.24060000
C      -44.23540000     -31.48670000     -70.27700000
H      -45.84480000     -31.35480000     -67.28320000
C      -43.60380000     -30.35740000     -69.81740000
C      -43.62570000     -31.91740000     -71.55040000
C      -42.60870000     -31.09980000     -71.91920000
S      -44.19690000     -29.84640000     -68.22600000
S      -42.32670000     -29.73380000     -70.82620000
H      -42.00270000     -31.22700000     -72.83320000
