40
Properties=species:S:1:pos:R:3 #=T CELL(abcABC):=T 1.889726e+02=T 90.00000=T Traj:=T positionsangstrom=T Step:=T 0=T Bead:=T pbc="F F F"
C      -45.96410000     -37.50350000     -73.66600000
C      -45.89120000     -36.10240000     -73.73190000
C      -46.79810000     -35.27320000     -73.07640000
C      -47.86180000     -35.80180000     -72.35950000
C      -48.05900000     -37.22950000     -72.41480000
C      -47.13600000     -38.04450000     -73.07870000
H      -45.26620000     -38.11760000     -74.28520000
H      -46.56220000     -34.18520000     -73.12670000
H      -48.89500000     -37.65650000     -71.89190000
H      -47.19770000     -39.13460000     -72.98680000
C      -48.88990000     -34.97590000     -71.71530000
H      -49.95890000     -35.35740000     -71.75260000
H      -48.97250000     -33.97650000     -72.12920000
C      -44.89140000     -35.46350000     -74.68150000
H      -44.76840000     -36.16970000     -75.51500000
H      -45.20150000     -34.47760000     -75.06030000
S      -48.43370000     -34.67060000     -69.84210000
S      -43.29430000     -35.29370000     -73.79490000
C      -47.53930000     -33.09300000     -69.85410000
H      -47.50130000     -32.70610000     -70.91370000
H      -48.11730000     -32.28790000     -69.26120000
C      -43.40130000     -33.50800000     -73.22830000
H      -43.72880000     -32.96730000     -74.19810000
H      -42.36830000     -33.18160000     -73.02900000
C      -44.14800000     -33.25860000     -71.92840000
H      -45.25300000     -33.22200000     -72.02510000
H      -43.98340000     -34.09140000     -71.20330000
C      -46.14230000     -33.12250000     -69.18550000
H      -45.55580000     -33.86590000     -69.80460000
H      -46.21240000     -33.54340000     -68.18210000
C      -45.38480000     -31.77920000     -69.17470000
C      -45.50550000     -30.81610000     -68.18320000
C      -44.26880000     -31.46240000     -70.04940000
H      -46.16460000     -31.00970000     -67.32640000
C      -43.51640000     -30.32160000     -69.62070000
C      -43.71700000     -32.00420000     -71.32230000
C      -42.82240000     -31.07100000     -71.85490000
S      -44.27570000     -29.59980000     -68.26920000
S      -42.43310000     -29.71930000     -70.75980000
H      -42.27240000     -31.21990000     -72.72920000
