40
Properties=species:S:1:pos:R:3 #=T CELL(abcABC):=T 1.889726e+02=T 90.00000=T Traj:=T positionsangstrom=T Step:=T 0=T Bead:=T pbc="F F F"
C      -44.57880000     -30.02690000     -70.27060000
C      -45.26350000     -30.30880000     -71.47840000
C      -46.64390000     -30.51960000     -71.47790000
C      -47.35430000     -30.54740000     -70.25710000
C      -46.62250000     -30.28640000     -69.06140000
C      -45.21640000     -30.09560000     -69.05860000
H      -43.54820000     -29.95080000     -70.39150000
H      -47.21040000     -30.83860000     -72.34250000
H      -47.19690000     -30.68530000     -68.18720000
H      -44.72280000     -29.94240000     -68.08600000
C      -48.79950000     -31.03370000     -70.03050000
H      -49.47630000     -30.21800000     -70.38700000
H      -48.94990000     -31.19220000     -68.95520000
C      -44.56870000     -30.22820000     -72.87530000
H      -45.11760000     -30.82850000     -73.52610000
H      -44.37520000     -29.22890000     -73.17590000
S      -49.20500000     -32.55270000     -70.98370000
S      -42.82020000     -30.81760000     -73.00330000
C      -47.99160000     -33.85240000     -70.33010000
H      -47.99880000     -33.77900000     -69.25860000
H      -48.52740000     -34.83880000     -70.60130000
C      -42.75170000     -32.63750000     -72.61020000
H      -42.75050000     -32.81090000     -71.54840000
H      -41.75140000     -32.92880000     -72.91700000
C      -43.91590000     -33.42230000     -73.19430000
H      -44.70390000     -32.85040000     -72.88940000
H      -43.76200000     -33.37080000     -74.26700000
C      -46.58970000     -33.75600000     -71.03120000
H      -46.04690000     -32.87920000     -70.77640000
H      -46.78590000     -33.65460000     -72.12050000
C      -45.75560000     -34.96650000     -70.69330000
C      -46.10590000     -35.93470000     -69.70650000
C      -44.73690000     -35.44740000     -71.60990000
H      -46.80030000     -35.74810000     -68.87300000
C      -44.27040000     -36.73690000     -71.29190000
C      -43.88690000     -34.84080000     -72.70310000
C      -42.94780000     -35.72820000     -73.13820000
S      -45.17240000     -37.40010000     -69.97300000
S      -42.90470000     -37.30550000     -72.23230000
H      -42.18970000     -35.52670000     -73.92590000
