40
Properties=species:S:1:pos:R:3 #=T CELL(abcABC):=T 1.889726e+02=T 90.00000=T Traj:=T positionsangstrom=T Step:=T 0=T Bead:=T pbc="F F F"
C      -44.64850000     -30.11250000     -70.37660000
C      -45.30090000     -30.29620000     -71.57700000
C      -46.69190000     -30.45750000     -71.56920000
C      -47.46130000     -30.63770000     -70.41260000
C      -46.75710000     -30.54750000     -69.16050000
C      -45.35150000     -30.36410000     -69.18600000
H      -43.58660000     -29.84640000     -70.33820000
H      -47.21140000     -30.50140000     -72.53560000
H      -47.39320000     -30.45730000     -68.29690000
H      -44.86570000     -30.27930000     -68.18040000
C      -48.81920000     -30.92950000     -70.53910000
H      -49.36070000     -30.27850000     -71.15330000
H      -49.45620000     -30.83420000     -69.62960000
C      -44.62910000     -30.19070000     -72.90090000
H      -45.38320000     -30.60900000     -73.65750000
H      -44.68130000     -29.14390000     -73.21310000
S      -49.16890000     -32.68280000     -71.07710000
S      -42.91290000     -30.71760000     -73.05250000
C      -47.86620000     -33.60620000     -70.17660000
H      -47.89670000     -33.26100000     -69.14030000
H      -48.25910000     -34.60890000     -70.13120000
C      -43.08200000     -32.36150000     -72.24910000
H      -43.57610000     -32.11020000     -71.31540000
H      -41.97610000     -32.69510000     -72.11680000
C      -43.81330000     -33.41290000     -73.09870000
H      -44.89020000     -33.20360000     -73.11750000
H      -43.41670000     -33.47760000     -74.14970000
C      -46.48190000     -33.72620000     -70.91360000
H      -45.77360000     -33.01690000     -70.43520000
H      -46.55490000     -33.49160000     -71.99290000
C      -45.86160000     -35.08310000     -70.79490000
C      -46.30430000     -36.16370000     -69.99220000
C      -44.62910000     -35.38200000     -71.43540000
H      -47.06950000     -36.18590000     -69.23840000
C      -44.11100000     -36.64750000     -71.13970000
C      -43.75630000     -34.84150000     -72.51050000
C      -42.71750000     -35.69220000     -72.85690000
S      -45.14130000     -37.44230000     -69.97270000
S      -42.73290000     -37.25900000     -72.06880000
H      -41.84730000     -35.45830000     -73.40780000
