40
Properties=species:S:1:pos:R:3 #=T CELL(abcABC):=T 1.889726e+02=T 90.00000=T Traj:=T positionsangstrom=T Step:=T 0=T Bead:=T pbc="F F F"
C      -44.79540000     -30.06480000     -70.49240000
C      -45.44760000     -30.13420000     -71.70510000
C      -46.79890000     -30.36400000     -71.79170000
C      -47.50380000     -30.61280000     -70.60340000
C      -46.81220000     -30.55430000     -69.35540000
C      -45.41810000     -30.24300000     -69.27940000
H      -43.67900000     -29.79850000     -70.55780000
H      -47.39210000     -30.38020000     -72.70340000
H      -47.40210000     -30.70810000     -68.48490000
H      -44.87220000     -30.41490000     -68.37130000
C      -48.97920000     -30.98770000     -70.67950000
H      -49.43460000     -30.51670000     -71.59900000
H      -49.47910000     -30.82810000     -69.69750000
C      -44.61360000     -29.80530000     -72.96600000
H      -45.02600000     -29.88790000     -73.99230000
H      -44.29790000     -28.75370000     -72.81660000
S      -49.06120000     -32.76920000     -71.17430000
S      -42.99660000     -30.76760000     -72.99850000
C      -47.84420000     -33.61270000     -70.22030000
H      -47.46590000     -33.06850000     -69.33030000
H      -48.29530000     -34.57200000     -69.97930000
C      -43.19040000     -32.38480000     -72.06030000
H      -43.80150000     -32.29450000     -71.16680000
H      -42.24490000     -32.75500000     -71.66880000
C      -43.82380000     -33.46920000     -72.93580000
H      -44.90940000     -33.24730000     -73.12740000
H      -43.40140000     -33.35920000     -73.86570000
C      -46.47190000     -33.83060000     -70.96390000
H      -45.80680000     -32.93330000     -70.75830000
H      -46.59430000     -33.80110000     -72.04450000
C      -45.80570000     -35.09820000     -70.67960000
C      -46.23010000     -36.12010000     -69.84390000
C      -44.56530000     -35.50810000     -71.42030000
H      -47.07700000     -36.21860000     -69.19620000
C      -44.05910000     -36.73580000     -71.07540000
C      -43.68250000     -34.82830000     -72.34060000
C      -42.55630000     -35.56300000     -72.63420000
S      -45.18490000     -37.57670000     -70.03340000
S      -42.60020000     -37.20820000     -71.88570000
H      -41.86190000     -35.30480000     -73.33170000
