40
Properties=species:S:1:pos:R:3 #=T CELL(abcABC):=T 1.889726e+02=T 90.00000=T Traj:=T positionsangstrom=T Step:=T 0=T Bead:=T pbc="F F F"
C      -45.15750000     -29.21850000     -70.69250000
C      -45.53130000     -30.05670000     -71.80690000
C      -46.79850000     -30.64900000     -71.75540000
C      -47.52260000     -30.78570000     -70.48540000
C      -47.12600000     -29.96360000     -69.45240000
C      -45.98380000     -29.15370000     -69.58260000
H      -44.37430000     -28.47220000     -70.84510000
H      -47.00700000     -31.34280000     -72.52540000
H      -47.70730000     -29.93120000     -68.56000000
H      -45.80460000     -28.47560000     -68.76120000
C      -48.80890000     -31.51410000     -70.32180000
H      -49.55610000     -30.76940000     -70.52150000
H      -48.86160000     -31.90550000     -69.33310000
C      -44.72250000     -30.04320000     -73.06070000
H      -45.34300000     -30.64740000     -73.77190000
H      -44.48350000     -29.06830000     -73.38760000
S      -49.04730000     -32.88270000     -71.53770000
S      -42.95410000     -30.77800000     -72.93940000
C      -48.10750000     -34.30700000     -70.84540000
H      -48.02300000     -34.09370000     -69.78770000
H      -48.70120000     -35.25680000     -70.88900000
C      -43.47460000     -32.34100000     -72.01570000
H      -44.25870000     -32.05450000     -71.39740000
H      -42.61050000     -32.72450000     -71.38330000
C      -43.89090000     -33.54640000     -72.93140000
H      -44.87710000     -33.58860000     -73.31650000
H      -43.31180000     -33.53230000     -73.83580000
C      -46.77300000     -34.40160000     -71.59730000
H      -46.25300000     -33.41390000     -71.56510000
H      -47.01840000     -34.53480000     -72.63630000
C      -45.82180000     -35.33520000     -70.94510000
C      -46.22980000     -36.33690000     -70.07520000
C      -44.44890000     -35.55740000     -71.42210000
H      -47.23070000     -36.40470000     -69.67400000
C      -43.89930000     -36.74500000     -70.81420000
C      -43.50740000     -34.82470000     -72.18670000
C      -42.27130000     -35.47160000     -72.25740000
S      -44.96590000     -37.54840000     -69.80790000
S      -42.20410000     -36.91140000     -71.28620000
H      -41.37580000     -35.03900000     -72.74850000
