40
Properties=species:S:1:pos:R:3 #=T CELL(abcABC):=T 1.889726e+02=T 90.00000=T Traj:=T positionsangstrom=T Step:=T 0=T Bead:=T pbc="F F F"
C      -45.28730000     -29.13640000     -71.06440000
C      -45.67740000     -30.05240000     -72.01820000
C      -46.86520000     -30.84880000     -71.74500000
C      -47.56900000     -30.80500000     -70.54820000
C      -47.04880000     -29.91510000     -69.56490000
C      -45.99980000     -29.04270000     -69.80400000
H      -44.42520000     -28.45850000     -71.22080000
H      -47.14520000     -31.63240000     -72.50130000
H      -47.52870000     -29.93080000     -68.59330000
H      -45.52030000     -28.35800000     -69.09750000
C      -48.63670000     -31.75790000     -70.07800000
H      -49.51270000     -31.25720000     -69.76360000
H      -48.30730000     -32.39570000     -69.24670000
C      -44.82930000     -30.38440000     -73.24000000
H      -45.17590000     -31.20710000     -73.80380000
H      -44.79380000     -29.55770000     -74.00830000
S      -49.21950000     -32.91820000     -71.46020000
S      -43.02960000     -30.86820000     -72.89990000
C      -48.15060000     -34.39110000     -71.22580000
H      -48.04500000     -34.64880000     -70.14230000
H      -48.80620000     -35.07820000     -71.70970000
C      -43.27720000     -32.49090000     -72.08250000
H      -44.04970000     -32.36710000     -71.27810000
H      -42.46140000     -32.70530000     -71.51420000
C      -43.63740000     -33.62430000     -73.01790000
H      -44.69450000     -33.59790000     -73.36600000
H      -42.98470000     -33.65720000     -73.90130000
C      -46.68600000     -34.22770000     -71.71910000
H      -46.30210000     -33.28590000     -71.47700000
H      -46.71930000     -34.27070000     -72.82560000
C      -45.77080000     -35.30650000     -71.03190000
C      -46.24390000     -36.18150000     -70.12460000
C      -44.40770000     -35.52470000     -71.34170000
H      -47.26880000     -36.47390000     -69.78110000
C      -43.85780000     -36.54400000     -70.59500000
C      -43.41740000     -34.90580000     -72.23160000
C      -42.15000000     -35.35710000     -72.10430000
S      -45.06710000     -37.33280000     -69.60280000
S      -42.12090000     -36.82230000     -71.06230000
H      -41.31890000     -35.14910000     -72.72780000
