40
Properties=species:S:1:pos:R:3 #=T CELL(abcABC):=T 1.889726e+02=T 90.00000=T Traj:=T positionsangstrom=T Step:=T 0=T Bead:=T pbc="F F F"
C      -43.87700000     -29.75470000     -70.57740000
C      -44.87980000     -29.90280000     -71.49150000
C      -46.16260000     -30.27350000     -70.99350000
C      -46.42350000     -30.42760000     -69.62320000
C      -45.37730000     -30.08730000     -68.73460000
C      -44.11310000     -29.76690000     -69.15590000
H      -42.92870000     -29.54200000     -70.98650000
H      -46.90700000     -30.40890000     -71.77640000
H      -45.54410000     -30.20170000     -67.66320000
H      -43.33240000     -29.79520000     -68.35460000
C      -47.80190000     -30.90140000     -69.15930000
H      -48.45300000     -30.02500000     -68.99240000
H      -47.84840000     -31.33430000     -68.18500000
C      -44.61310000     -29.65970000     -72.96180000
H      -45.54320000     -29.79680000     -73.51610000
H      -44.06320000     -28.72350000     -73.23330000
S      -48.60570000     -32.09410000     -70.33150000
S      -43.47890000     -30.98550000     -73.67230000
C      -47.93560000     -33.78940000     -70.08530000
H      -47.84730000     -34.05290000     -69.00500000
H      -48.63110000     -34.55860000     -70.58340000
C      -43.68700000     -32.41110000     -72.49430000
H      -44.23830000     -32.07670000     -71.60600000
H      -42.65590000     -32.73830000     -72.19260000
C      -44.45760000     -33.56350000     -73.22610000
H      -45.51480000     -33.35960000     -73.13360000
H      -44.31360000     -33.50800000     -74.31640000
C      -46.57650000     -33.89120000     -70.83320000
H      -45.89270000     -33.29490000     -70.26010000
H      -46.78080000     -33.37780000     -71.78060000
C      -46.13280000     -35.29060000     -70.89610000
C      -46.62570000     -36.35270000     -70.15130000
C      -45.00530000     -35.64990000     -71.69820000
H      -47.49690000     -36.40190000     -69.49070000
C      -44.59240000     -36.99240000     -71.42930000
C      -44.21910000     -34.99670000     -72.71380000
C      -43.28710000     -35.93450000     -73.26950000
S      -45.61620000     -37.83000000     -70.34510000
S      -43.28150000     -37.51410000     -72.43850000
H      -42.52930000     -35.62610000     -73.98900000
