40
Properties=species:S:1:pos:R:3 #=T CELL(abcABC):=T 1.889726e+02=T 90.00000=T Traj:=T positionsangstrom=T Step:=T 0=T Bead:=T pbc="F F F"
C      -44.27370000     -29.87060000     -70.27640000
C      -45.02650000     -30.22660000     -71.34270000
C      -46.40200000     -30.53190000     -71.12400000
C      -46.95630000     -30.62410000     -69.81340000
C      -46.09390000     -30.30870000     -68.71220000
C      -44.80790000     -29.85960000     -68.96590000
H      -43.27900000     -29.35000000     -70.41740000
H      -47.05660000     -30.76330000     -71.98430000
H      -46.53590000     -30.39640000     -67.77470000
H      -44.10750000     -29.51870000     -68.19110000
C      -48.37890000     -31.04220000     -69.54550000
H      -49.14490000     -30.34580000     -69.40270000
H      -48.43970000     -31.54670000     -68.53060000
C      -44.56660000     -30.20900000     -72.82320000
H      -45.27540000     -30.66350000     -73.46220000
H      -44.38130000     -29.19910000     -73.04220000
S      -49.11590000     -32.17490000     -70.84630000
S      -42.83650000     -30.96370000     -73.14140000
C      -48.13460000     -33.74740000     -70.42190000
H      -48.03220000     -33.73580000     -69.32780000
H      -48.77340000     -34.55230000     -70.73240000
C      -43.18810000     -32.74330000     -72.49730000
H      -43.72010000     -32.66090000     -71.56660000
H      -42.28850000     -33.28590000     -72.47330000
C      -44.22690000     -33.50000000     -73.37900000
H      -45.18230000     -32.85790000     -73.32140000
H      -43.77500000     -33.35010000     -74.38110000
C      -46.82270000     -33.85400000     -71.13510000
H      -46.23440000     -32.95840000     -70.88430000
H      -47.00760000     -33.89830000     -72.19530000
C      -45.97210000     -35.10560000     -70.82020000
C      -46.13150000     -35.99990000     -69.81520000
C      -44.80370000     -35.50150000     -71.69350000
H      -47.02180000     -35.95900000     -69.18270000
C      -44.34760000     -36.76440000     -71.38280000
C      -44.22430000     -34.98820000     -72.95630000
C      -43.35050000     -35.89130000     -73.44090000
S      -45.09910000     -37.41610000     -69.97790000
S      -43.12830000     -37.38750000     -72.50870000
H      -42.67000000     -35.72210000     -74.40270000
