40
Properties=species:S:1:pos:R:3 #=T CELL(abcABC):=T 1.889726e+02=T 90.00000=T Traj:=T positionsangstrom=T Step:=T 0=T Bead:=T pbc="F F F"
C      -43.73100000     -29.74160000     -70.97970000
C      -44.85870000     -30.06540000     -71.74720000
C      -46.08610000     -30.31260000     -71.03960000
C      -46.08950000     -30.51630000     -69.62810000
C      -44.89770000     -30.19450000     -68.88150000
C      -43.76670000     -29.72910000     -69.59650000
H      -42.87450000     -29.44360000     -71.63210000
H      -47.00430000     -30.63860000     -71.47870000
H      -44.84410000     -30.36400000     -67.83110000
H      -42.92610000     -29.65290000     -68.96720000
C      -47.26020000     -30.99730000     -68.78060000
H      -47.69850000     -30.22590000     -68.07590000
H      -46.79730000     -31.65450000     -68.10880000
C      -44.73060000     -30.02140000     -73.23540000
H      -45.65500000     -30.42770000     -73.64810000
H      -44.67890000     -28.97490000     -73.60150000
S      -48.58420000     -31.92440000     -69.76970000
S      -43.30650000     -31.08330000     -73.80280000
C      -47.83740000     -33.56090000     -69.79820000
H      -47.14880000     -33.63050000     -68.95550000
H      -48.60870000     -34.30290000     -69.66040000
C      -43.53490000     -32.61090000     -72.80000000
H      -43.88120000     -32.27690000     -71.79860000
H      -42.60930000     -33.11190000     -72.63790000
C      -44.53910000     -33.68970000     -73.34900000
H      -45.59450000     -33.60350000     -73.19520000
H      -44.48600000     -33.89620000     -74.41330000
C      -47.05210000     -33.78350000     -71.07940000
H      -46.18610000     -33.13210000     -71.13790000
H      -47.71940000     -33.68850000     -71.98580000
C      -46.39360000     -35.17250000     -71.07800000
C      -46.99560000     -36.27440000     -70.42230000
C      -45.13880000     -35.54770000     -71.67280000
H      -47.98060000     -36.24500000     -69.93100000
C      -44.81620000     -36.85410000     -71.35590000
C      -44.27910000     -35.06960000     -72.67630000
C      -43.19250000     -35.87530000     -73.00920000
S      -45.95220000     -37.70570000     -70.36530000
S      -43.39060000     -37.49970000     -72.17790000
H      -42.60230000     -35.83770000     -73.89200000
