40
Properties=species:S:1:pos:R:3 #=T CELL(abcABC):=T 1.889726e+02=T 90.00000=T Traj:=T positionsangstrom=T Step:=T 0=T Bead:=T pbc="F F F"
C      -44.04110000     -29.80220000     -70.40680000
C      -44.94320000     -30.08170000     -71.46120000
C      -46.23810000     -30.44650000     -71.13590000
C      -46.70920000     -30.64840000     -69.81500000
C      -45.83010000     -30.27570000     -68.77410000
C      -44.46490000     -29.95680000     -69.10000000
H      -42.90770000     -29.62100000     -70.63790000
H      -46.87020000     -30.65780000     -71.96130000
H      -46.05850000     -30.55470000     -67.77220000
H      -43.79160000     -29.73210000     -68.36470000
C      -48.11510000     -31.04560000     -69.46610000
H      -48.74630000     -30.20840000     -69.47900000
H      -47.99620000     -31.44350000     -68.42720000
C      -44.50970000     -29.81730000     -72.87950000
H      -45.36410000     -29.99740000     -73.62200000
H      -44.08650000     -28.81100000     -73.07880000
S      -48.89120000     -32.28230000     -70.59260000
S      -43.15670000     -31.03050000     -73.13250000
C      -48.05830000     -33.84360000     -70.35060000
H      -47.91090000     -34.06520000     -69.25200000
H      -48.75000000     -34.66750000     -70.60480000
C      -43.68040000     -32.62950000     -72.40230000
H      -44.22670000     -32.34370000     -71.43580000
H      -42.76360000     -33.06040000     -71.93090000
C      -44.32980000     -33.52460000     -73.45730000
H      -45.33210000     -33.21170000     -73.69350000
H      -43.75160000     -33.52340000     -74.35950000
C      -46.73710000     -33.82840000     -71.03150000
H      -46.22450000     -32.94350000     -70.61540000
H      -46.89850000     -33.57580000     -72.08470000
C      -46.01130000     -35.10230000     -70.92310000
C      -46.27010000     -35.96270000     -69.94200000
C      -44.93730000     -35.56420000     -71.78990000
H      -46.99920000     -35.78760000     -69.15730000
C      -44.48820000     -36.84790000     -71.46860000
C      -44.23430000     -35.02480000     -72.92370000
C      -43.25000000     -35.85510000     -73.37610000
S      -45.27120000     -37.40580000     -69.97920000
S      -43.23450000     -37.44660000     -72.57570000
H      -42.60280000     -35.56120000     -74.32300000
