40
Properties=species:S:1:pos:R:3 #=T CELL(abcABC):=T 1.889726e+02=T 90.00000=T Traj:=T positionsangstrom=T Step:=T 0=T Bead:=T pbc="F F F"
C      -47.19700000     -34.86120000     -71.95260000
C      -47.75030000     -33.59320000     -71.92690000
C      -47.67940000     -32.80840000     -70.76420000
C      -47.18190000     -33.39740000     -69.57180000
C      -46.61260000     -34.68330000     -69.66080000
C      -46.58400000     -35.42530000     -70.82790000
H      -47.38560000     -35.39310000     -72.88250000
H      -48.10170000     -31.75930000     -70.72870000
H      -46.16780000     -35.16950000     -68.76720000
H      -46.17760000     -36.49400000     -70.86100000
C      -47.02520000     -32.53950000     -68.36690000
H      -47.08900000     -33.11370000     -67.38760000
H      -47.80860000     -31.73150000     -68.41960000
C      -48.42450000     -33.02400000     -73.11150000
H      -49.14870000     -33.56380000     -73.68910000
H      -48.91550000     -32.10490000     -72.88540000
S      -45.34550000     -31.69700000     -68.18510000
S      -47.30880000     -32.64280000     -74.55200000
C      -45.18280000     -30.92370000     -69.84500000
H      -45.94610000     -31.38800000     -70.51280000
H      -45.47380000     -29.83480000     -69.66970000
C      -45.98600000     -31.59060000     -73.73930000
H      -46.33240000     -31.47840000     -72.68380000
H      -46.04750000     -30.49070000     -74.06620000
C      -44.53990000     -32.12300000     -73.89660000
H      -44.28290000     -32.36630000     -74.88000000
H      -43.94990000     -31.33080000     -73.52610000
C      -43.80250000     -31.05170000     -70.40520000
H      -43.12130000     -30.60220000     -69.71920000
H      -43.85960000     -30.45840000     -71.36180000
C      -43.43500000     -32.51040000     -70.63330000
C      -42.91060000     -33.11740000     -69.52480000
C      -43.77440000     -33.46160000     -71.67690000
H      -42.46280000     -32.68580000     -68.68540000
C      -43.57030000     -34.76230000     -71.22840000
C      -44.13190000     -33.38970000     -73.10590000
C      -44.18580000     -34.62740000     -73.62420000
S      -42.83100000     -34.86690000     -69.69230000
S      -43.72990000     -35.94490000     -72.52360000
H      -44.34030000     -34.72260000     -74.64950000
