40
Properties=species:S:1:pos:R:3 #=T CELL(abcABC):=T 1.889726e+02=T 90.00000=T Traj:=T positionsangstrom=T Step:=T 0=T Bead:=T pbc="F F F"
C      -47.49630000     -35.07000000     -71.78150000
C      -47.88430000     -33.73740000     -71.92800000
C      -47.79190000     -32.86380000     -70.81290000
C      -47.17090000     -33.35140000     -69.64440000
C      -46.69480000     -34.65750000     -69.59350000
C      -46.78390000     -35.52570000     -70.69610000
H      -47.59560000     -35.69130000     -72.70590000
H      -48.27410000     -31.88820000     -70.91160000
H      -46.12850000     -34.94680000     -68.65990000
H      -46.34670000     -36.54970000     -70.65480000
C      -47.05330000     -32.34780000     -68.46160000
H      -47.22950000     -32.89690000     -67.51070000
H      -47.75850000     -31.56860000     -68.57230000
C      -48.42350000     -33.25330000     -73.20440000
H      -49.02690000     -34.02130000     -73.70040000
H      -48.98280000     -32.35370000     -72.83690000
S      -45.28980000     -31.61300000     -68.36260000
S      -47.10590000     -32.71590000     -74.43740000
C      -45.05290000     -30.73850000     -69.98610000
H      -45.86600000     -30.93710000     -70.64640000
H      -45.05920000     -29.64380000     -69.92470000
C      -46.10270000     -31.51720000     -73.45610000
H      -46.38270000     -31.53560000     -72.41620000
H      -46.19610000     -30.53980000     -73.89400000
C      -44.65780000     -31.94570000     -73.64080000
H      -44.60220000     -32.11270000     -74.78000000
H      -43.95710000     -31.05190000     -73.42730000
C      -43.64620000     -31.12390000     -70.50040000
H      -42.86710000     -30.60160000     -69.94320000
H      -43.49600000     -30.61080000     -71.46170000
C      -43.36060000     -32.57660000     -70.57880000
C      -43.05450000     -33.26090000     -69.41390000
C      -43.57900000     -33.41430000     -71.72420000
H      -42.73560000     -32.80880000     -68.48250000
C      -43.26860000     -34.72800000     -71.36830000
C      -44.19430000     -33.28040000     -73.02480000
C      -44.32400000     -34.48730000     -73.64480000
S      -42.90360000     -35.00070000     -69.66810000
S      -43.68090000     -35.83420000     -72.64570000
H      -44.84290000     -34.65940000     -74.52230000
