40
Properties=species:S:1:pos:R:3 #=T CELL(abcABC):=T 1.889726e+02=T 90.00000=T Traj:=T positionsangstrom=T Step:=T 0=T Bead:=T pbc="F F F"
C      -47.17570000     -34.75580000     -72.06560000
C      -47.70810000     -33.47060000     -71.92840000
C      -47.74280000     -32.86850000     -70.67750000
C      -47.16580000     -33.42090000     -69.54770000
C      -46.59470000     -34.69640000     -69.71420000
C      -46.57510000     -35.30030000     -70.94010000
H      -47.20220000     -35.20870000     -73.02340000
H      -48.17030000     -31.86910000     -70.61490000
H      -46.12360000     -35.12510000     -68.86550000
H      -45.98630000     -36.23060000     -71.03560000
C      -47.05120000     -32.67860000     -68.27090000
H      -46.95010000     -33.32590000     -67.44960000
H      -47.88660000     -32.03380000     -68.06260000
C      -48.38810000     -32.73440000     -73.16420000
H      -49.21700000     -33.38520000     -73.50550000
H      -48.81740000     -31.77370000     -72.77450000
S      -45.54750000     -31.66520000     -68.01640000
S      -47.28270000     -32.65520000     -74.62970000
C      -45.29720000     -30.78770000     -69.59600000
H      -46.07930000     -31.09420000     -70.27780000
H      -45.27590000     -29.73620000     -69.44040000
C      -45.88140000     -31.64770000     -73.93290000
H      -46.12640000     -31.39940000     -72.91200000
H      -45.86140000     -30.72420000     -74.49590000
C      -44.51020000     -32.33480000     -74.01520000
H      -44.44810000     -32.63280000     -75.10000000
H      -43.65770000     -31.58520000     -73.87170000
C      -44.01300000     -31.06160000     -70.40300000
H      -43.17200000     -30.56580000     -69.87090000
H      -44.05930000     -30.68190000     -71.42360000
C      -43.53630000     -32.54070000     -70.60730000
C      -42.80380000     -33.10620000     -69.58160000
C      -43.74420000     -33.47580000     -71.68520000
H      -42.55730000     -32.78180000     -68.61080000
C      -43.32270000     -34.74830000     -71.33290000
C      -44.28470000     -33.47130000     -73.05050000
C      -44.44100000     -34.73790000     -73.45280000
S      -42.55010000     -34.82180000     -69.78050000
S      -43.74040000     -36.01430000     -72.47580000
H      -44.90210000     -35.00200000     -74.41200000
