40
Properties=species:S:1:pos:R:3 #=T CELL(abcABC):=T 1.889726e+02=T 90.00000=T Traj:=T positionsangstrom=T Step:=T 0=T Bead:=T pbc="F F F"
C      -47.34880000     -34.76610000     -71.97290000
C      -47.82330000     -33.43470000     -71.91520000
C      -47.71170000     -32.79510000     -70.67600000
C      -47.10090000     -33.35500000     -69.56430000
C      -46.58050000     -34.66350000     -69.67590000
C      -46.75650000     -35.40500000     -70.89430000
H      -47.46850000     -35.29630000     -72.89450000
H      -48.19080000     -31.82100000     -70.56760000
H      -46.10770000     -35.17860000     -68.83700000
H      -46.52420000     -36.42590000     -70.85820000
C      -47.05060000     -32.65630000     -68.26660000
H      -46.92400000     -33.44680000     -67.49580000
H      -47.97030000     -31.97070000     -68.16260000
C      -48.37530000     -32.76460000     -73.13720000
H      -49.30770000     -33.25250000     -73.47910000
H      -48.61990000     -31.72040000     -72.92800000
S      -45.45490000     -31.62890000     -68.14360000
S      -47.17650000     -32.70060000     -74.53070000
C      -45.38690000     -30.82730000     -69.80170000
H      -46.23250000     -31.20100000     -70.36110000
H      -45.66070000     -29.77420000     -69.76500000
C      -45.84840000     -31.55070000     -73.93740000
H      -46.26850000     -31.08710000     -73.01120000
H      -45.65940000     -30.88730000     -74.78160000
C      -44.47740000     -32.26050000     -73.80420000
H      -44.01180000     -32.51670000     -74.76750000
H      -43.69030000     -31.55350000     -73.45600000
C      -44.10620000     -31.11410000     -70.64670000
H      -43.30100000     -30.47880000     -70.20550000
H      -44.34710000     -30.58040000     -71.53260000
C      -43.63640000     -32.56150000     -70.57260000
C      -43.00630000     -33.10840000     -69.48660000
C      -43.79030000     -33.54510000     -71.61330000
H      -42.79100000     -32.64500000     -68.53100000
C      -43.35900000     -34.85920000     -71.26950000
C      -44.36740000     -33.51840000     -72.95400000
C      -44.28890000     -34.73150000     -73.53820000
S      -42.45760000     -34.77520000     -69.78220000
S      -43.70200000     -36.03270000     -72.52020000
H      -44.63140000     -34.98190000     -74.60500000
