40
Properties=species:S:1:pos:R:3 #=T CELL(abcABC):=T 1.889726e+02=T 90.00000=T Traj:=T positionsangstrom=T Step:=T 0=T Bead:=T pbc="F F F"
C      -47.18540000     -34.66280000     -71.25680000
C      -47.52680000     -33.43490000     -71.83660000
C      -47.53140000     -32.28110000     -71.02260000
C      -47.18330000     -32.33020000     -69.66700000
C      -46.78500000     -33.62050000     -69.19740000
C      -46.81430000     -34.79410000     -69.92020000
H      -47.31240000     -35.56110000     -71.92050000
H      -47.83890000     -31.36880000     -71.47750000
H      -46.41130000     -33.64230000     -68.15880000
H      -46.58000000     -35.75680000     -69.41780000
C      -47.09870000     -31.09280000     -68.83810000
H      -47.26680000     -31.14770000     -67.79390000
H      -47.88080000     -30.36370000     -69.23290000
C      -48.03420000     -33.37690000     -73.28080000
H      -48.88280000     -34.07820000     -73.56790000
H      -48.36950000     -32.32590000     -73.55990000
S      -45.33810000     -30.45190000     -68.99040000
S      -46.69340000     -33.67250000     -74.52600000
C      -44.85910000     -30.61030000     -70.72690000
H      -45.73340000     -31.11990000     -71.22330000
H      -44.80680000     -29.59030000     -71.11490000
C      -45.41850000     -32.40740000     -74.15920000
H      -45.76670000     -31.95760000     -73.18700000
H      -45.63200000     -31.52400000     -74.88800000
C      -43.99490000     -32.95430000     -74.06320000
H      -43.66600000     -33.34360000     -74.99720000
H      -43.31370000     -32.10000000     -73.80400000
C      -43.52710000     -31.30920000     -71.03140000
H      -42.66150000     -30.85590000     -70.49980000
H      -43.33750000     -31.06920000     -72.05840000
C      -43.55100000     -32.75480000     -70.61370000
C      -43.46570000     -33.22440000     -69.31670000
C      -43.78610000     -33.84740000     -71.54540000
H      -43.52170000     -32.75470000     -68.35090000
C      -43.71930000     -35.11150000     -70.93960000
C      -43.92310000     -34.00630000     -72.97230000
C      -44.24300000     -35.28690000     -73.40250000
S      -43.71670000     -34.94400000     -69.22050000
S      -44.06650000     -36.39340000     -72.10890000
H      -44.37370000     -35.59990000     -74.39340000
