40
Properties=species:S:1:pos:R:3 #=T CELL(abcABC):=T 1.889726e+02=T 90.00000=T Traj:=T positionsangstrom=T Step:=T 0=T Bead:=T pbc="F F F"
C      -47.50680000     -32.18700000     -69.69480000
C      -47.40010000     -31.44630000     -70.89470000
C      -47.83320000     -32.02650000     -72.06240000
C      -48.40820000     -33.33650000     -72.07760000
C      -48.28910000     -34.08640000     -70.88140000
C      -47.87820000     -33.54290000     -69.69150000
H      -47.08210000     -31.72590000     -68.81740000
H      -47.74870000     -31.53550000     -73.09460000
H      -48.38750000     -35.22330000     -70.88100000
H      -47.65630000     -34.03240000     -68.81140000
C      -48.95390000     -33.98740000     -73.43320000
H      -49.71260000     -33.36210000     -73.94920000
H      -49.51850000     -34.86200000     -73.07880000
C      -46.82240000     -29.97250000     -70.88090000
H      -46.76740000     -29.63390000     -72.03470000
H      -47.50640000     -29.36300000     -70.34380000
S      -47.60110000     -34.46560000     -74.56190000
S      -45.11700000     -29.69970000     -70.17370000
C      -46.45900000     -35.49770000     -73.45990000
H      -47.00720000     -35.97490000     -72.62420000
H      -46.00810000     -36.30590000     -74.09460000
C      -43.92260000     -30.28290000     -71.39410000
H      -42.91700000     -29.97120000     -71.05520000
H      -44.22040000     -29.62240000     -72.28510000
C      -44.02410000     -31.73210000     -71.87290000
H      -45.05500000     -32.01430000     -71.83260000
H      -43.57860000     -31.76760000     -72.87550000
C      -45.32580000     -34.54640000     -73.00550000
H      -45.84090000     -33.56760000     -72.60980000
H      -44.69550000     -34.22170000     -73.86020000
C      -44.40340000     -35.11510000     -71.95220000
C      -44.19580000     -36.46070000     -71.67220000
C      -43.63790000     -34.19730000     -71.11440000
H      -44.89190000     -37.21820000     -71.97720000
C      -42.88550000     -34.89970000     -70.15610000
C      -43.39250000     -32.75460000     -70.99380000
C      -42.46420000     -32.44250000     -70.02900000
S      -43.07440000     -36.66730000     -70.25010000
S      -41.86050000     -33.86140000     -69.16780000
H      -42.09320000     -31.40270000     -69.85370000
