40
Properties=species:S:1:pos:R:3 #=T CELL(abcABC):=T 1.889726e+02=T 90.00000=T Traj:=T positionsangstrom=T Step:=T 0=T Bead:=T pbc="F F F"
C      -47.56430000     -34.71150000     -71.22790000
C      -47.59840000     -33.43900000     -71.83580000
C      -47.53580000     -32.28870000     -71.01990000
C      -47.22560000     -32.39430000     -69.61590000
C      -47.02400000     -33.68380000     -69.14660000
C      -47.15590000     -34.86200000     -69.87960000
H      -47.74880000     -35.47140000     -71.93070000
H      -47.67240000     -31.26410000     -71.45470000
H      -46.71000000     -33.77960000     -68.10830000
H      -46.93700000     -35.84110000     -69.41880000
C      -47.19070000     -31.22940000     -68.66960000
H      -47.44860000     -31.55700000     -67.64520000
H      -47.84680000     -30.45450000     -68.98270000
C      -48.04550000     -33.19070000     -73.28900000
H      -48.60660000     -34.09410000     -73.60330000
H      -48.57640000     -32.27070000     -73.30750000
S      -45.50990000     -30.49990000     -68.61060000
S      -46.69620000     -33.40000000     -74.43400000
C      -44.95920000     -30.38850000     -70.44050000
H      -45.93090000     -30.45490000     -70.94470000
H      -44.51210000     -29.35230000     -70.60790000
C      -45.43750000     -32.18190000     -73.90310000
H      -45.64540000     -32.09570000     -72.78930000
H      -45.50200000     -31.18040000     -74.38490000
C      -44.05190000     -32.81730000     -74.10610000
H      -43.92650000     -33.02000000     -75.19740000
H      -43.37410000     -32.07270000     -73.80210000
C      -43.85650000     -31.33720000     -70.91320000
H      -42.84620000     -30.92800000     -70.59960000
H      -43.84960000     -31.28180000     -72.00720000
C      -43.84190000     -32.82210000     -70.67470000
C      -43.67790000     -33.33670000     -69.44310000
C      -43.89010000     -33.93220000     -71.70390000
H      -43.47480000     -32.77030000     -68.50830000
C      -43.64990000     -35.20470000     -71.17440000
C      -43.87430000     -33.95020000     -73.16030000
C      -43.52110000     -35.22750000     -73.63130000
S      -43.59740000     -35.15910000     -69.45200000
S      -43.43770000     -36.46150000     -72.38520000
H      -43.67220000     -35.69520000     -74.67390000
