40
Properties=species:S:1:pos:R:3 #=T CELL(abcABC):=T 1.889726e+02=T 90.00000=T Traj:=T positionsangstrom=T Step:=T 0=T Bead:=T pbc="F F F"
C      -41.75720000     -32.02600000     -71.48710000
C      -42.82250000     -31.52000000     -72.29290000
C      -43.72260000     -30.61520000     -71.72680000
C      -43.62910000     -30.36660000     -70.37310000
C      -42.59100000     -30.78620000     -69.57980000
C      -41.58190000     -31.57220000     -70.16450000
H      -41.13640000     -32.78550000     -71.82470000
H      -44.44050000     -30.18200000     -72.38040000
H      -42.54670000     -30.57080000     -68.54340000
H      -40.75470000     -32.00910000     -69.64240000
C      -44.72600000     -29.56930000     -69.80750000
H      -44.69000000     -28.49020000     -70.11650000
H      -44.59050000     -29.69800000     -68.70550000
C      -42.92610000     -31.92610000     -73.79970000
H      -43.80810000     -31.41060000     -74.27080000
H      -42.06940000     -31.51820000     -74.32000000
S      -46.52820000     -29.98370000     -70.39330000
S      -42.85300000     -33.71060000     -74.25600000
C      -46.66040000     -31.77450000     -70.19120000
H      -45.71370000     -32.14330000     -69.84470000
H      -47.49430000     -31.90490000     -69.46320000
C      -44.51880000     -34.17810000     -73.39180000
H      -44.89080000     -35.10030000     -73.86390000
H      -45.19360000     -33.30710000     -73.53420000
C      -44.22490000     -34.52120000     -71.87830000
H      -43.26340000     -35.13870000     -71.80110000
H      -44.12960000     -33.58330000     -71.31780000
C      -46.94240000     -32.48920000     -71.52390000
H      -46.09290000     -32.41390000     -72.23540000
H      -47.71670000     -31.90490000     -72.04300000
C      -47.47450000     -33.88460000     -71.27250000
C      -48.83540000     -34.17550000     -70.99460000
C      -46.67840000     -35.09750000     -71.10370000
H      -49.69560000     -33.42200000     -70.94600000
C      -47.41730000     -36.17880000     -70.62960000
C      -45.23760000     -35.43660000     -71.28620000
C      -44.98850000     -36.72890000     -70.92030000
S      -49.10010000     -35.78360000     -70.43870000
S      -46.45730000     -37.62220000     -70.39110000
H      -44.06900000     -37.21700000     -70.93660000
