40
Properties=species:S:1:pos:R:3 #=T CELL(abcABC):=T 1.889726e+02=T 90.00000=T Traj:=T positionsangstrom=T Step:=T 0=T Bead:=T pbc="F F F"
C      -47.72500000     -34.64710000     -71.35380000
C      -48.06090000     -33.59950000     -72.13800000
C      -47.78340000     -32.27470000     -71.65940000
C      -47.25990000     -32.08540000     -70.39360000
C      -47.01590000     -33.22930000     -69.58090000
C      -47.27720000     -34.51790000     -70.04630000
H      -47.85320000     -35.64320000     -71.69280000
H      -47.96110000     -31.35570000     -72.23470000
H      -46.76670000     -32.99730000     -68.56170000
H      -47.17290000     -35.45600000     -69.47020000
C      -46.85370000     -30.73610000     -69.86660000
H      -47.45900000     -30.43600000     -69.02920000
H      -47.04220000     -29.99320000     -70.61340000
C      -48.45160000     -33.78460000     -73.55530000
H      -48.90060000     -34.80510000     -73.79370000
H      -49.06990000     -32.96820000     -73.90960000
S      -45.04650000     -30.63920000     -69.44230000
S      -46.99620000     -33.78660000     -74.82050000
C      -44.19460000     -30.64780000     -71.08400000
H      -44.94040000     -30.91370000     -71.81700000
H      -43.93350000     -29.59910000     -71.22700000
C      -45.73700000     -32.60630000     -74.05750000
H      -46.09960000     -32.04610000     -73.18640000
H      -45.52740000     -31.82530000     -74.83650000
C      -44.34110000     -33.03570000     -73.66330000
H      -43.90610000     -33.44230000     -74.60520000
H      -43.77600000     -32.18680000     -73.32520000
C      -42.86930000     -31.39940000     -70.99590000
H      -42.17660000     -30.94800000     -70.27570000
H      -42.28250000     -31.40790000     -71.96990000
C      -43.05980000     -32.83410000     -70.43750000
C      -42.48370000     -33.18500000     -69.19920000
C      -43.71280000     -33.85730000     -71.13050000
H      -41.94700000     -32.57030000     -68.52220000
C      -43.79650000     -35.00360000     -70.37750000
C      -44.21770000     -34.04460000     -72.51550000
C      -44.77960000     -35.29020000     -72.65340000
S      -42.89800000     -34.83860000     -68.87420000
S      -44.55000000     -36.31640000     -71.27000000
H      -45.25470000     -35.67950000     -73.59850000
