40
Properties=species:S:1:pos:R:3 #=T CELL(abcABC):=T 1.889726e+02=T 90.00000=T Traj:=T positionsangstrom=T Step:=T 0=T Bead:=T pbc="F F F"
C      -41.81960000     -31.82300000     -71.22730000
C      -42.90060000     -31.52630000     -72.06860000
C      -43.94530000     -30.75040000     -71.54870000
C      -43.99270000     -30.39640000     -70.19900000
C      -42.92950000     -30.72370000     -69.30880000
C      -41.86960000     -31.47140000     -69.90340000
H      -40.99860000     -32.42750000     -71.48530000
H      -44.74190000     -30.41400000     -72.17690000
H      -42.81040000     -30.18850000     -68.36360000
H      -41.02120000     -31.71500000     -69.28340000
C      -45.00420000     -29.39470000     -69.73540000
H      -44.81920000     -28.33250000     -69.95150000
H      -45.12990000     -29.47140000     -68.66680000
C      -42.89260000     -31.78950000     -73.61560000
H      -43.88810000     -31.49040000     -74.05390000
H      -42.13870000     -31.19710000     -74.17650000
S      -46.69340000     -29.79010000     -70.65560000
S      -42.66320000     -33.54720000     -74.17890000
C      -46.97820000     -31.54890000     -70.13780000
H      -46.23490000     -31.79450000     -69.29890000
H      -47.90920000     -31.64250000     -69.55720000
C      -44.05450000     -34.44150000     -73.30230000
H      -44.09930000     -35.43330000     -73.81700000
H      -45.00980000     -33.95790000     -73.51830000
C      -44.02130000     -34.55900000     -71.84660000
H      -43.08660000     -34.98670000     -71.33870000
H      -44.22800000     -33.58200000     -71.39200000
C      -46.90060000     -32.51860000     -71.31770000
H      -45.90680000     -32.55780000     -71.81350000
H      -47.55290000     -32.19310000     -72.11730000
C      -47.37310000     -33.88500000     -70.97740000
C      -48.71330000     -34.19360000     -70.59480000
C      -46.55970000     -35.15970000     -71.09910000
H      -49.54720000     -33.49440000     -70.45160000
C      -47.28570000     -36.32200000     -70.86550000
C      -45.13280000     -35.49500000     -71.37790000
C      -44.94430000     -36.85040000     -71.35130000
S      -48.97060000     -35.97560000     -70.50040000
S      -46.36710000     -37.80280000     -70.96400000
H      -43.99450000     -37.39280000     -71.43810000
