40
Properties=species:S:1:pos:R:3 #=T CELL(abcABC):=T 1.889726e+02=T 90.00000=T Traj:=T positionsangstrom=T Step:=T 0=T Bead:=T pbc="F F F"
C      -47.02900000     -36.82210000     -71.37930000
C      -47.61200000     -35.81440000     -70.65810000
C      -46.92080000     -35.35080000     -69.51360000
C      -45.76300000     -35.97070000     -69.02410000
C      -45.17370000     -36.97310000     -69.74720000
C      -45.85390000     -37.38990000     -70.89210000
H      -47.61960000     -37.20070000     -72.24500000
H      -47.45940000     -34.62380000     -68.92660000
H      -44.32860000     -37.49060000     -69.44320000
H      -45.45520000     -38.20600000     -71.45980000
C      -45.17950000     -35.49280000     -67.63130000
H      -44.23160000     -35.90200000     -67.34470000
H      -45.90770000     -35.80180000     -66.91590000
C      -48.87170000     -35.17850000     -71.10420000
H      -49.13570000     -35.59310000     -72.07810000
H      -49.67490000     -35.37140000     -70.45640000
S      -44.96960000     -33.58470000     -67.43840000
S      -48.70100000     -33.38850000     -71.26490000
C      -43.85500000     -33.17230000     -68.85980000
H      -43.11620000     -32.50800000     -68.52840000
H      -43.31030000     -34.10650000     -69.06130000
C      -47.21810000     -33.15260000     -72.35630000
H      -47.51620000     -33.25580000     -73.41000000
H      -46.36440000     -33.90910000     -72.18660000
C      -46.81760000     -31.61620000     -72.21940000
H      -47.68070000     -30.97790000     -72.46550000
H      -46.70430000     -31.31500000     -71.21430000
C      -44.55110000     -32.62810000     -70.12710000
H      -45.01660000     -31.65770000     -69.93080000
H      -45.39880000     -33.17890000     -70.40990000
C      -43.68610000     -32.31450000     -71.38250000
C      -42.33270000     -32.52930000     -71.56740000
C      -44.25730000     -31.66590000     -72.56070000
H      -41.86290000     -33.24700000     -70.86760000
C      -43.27810000     -31.46920000     -73.55620000
C      -45.59620000     -31.34290000     -73.05790000
C      -45.59450000     -30.85390000     -74.37300000
S      -41.70620000     -32.05450000     -73.12110000
S      -43.96240000     -30.74090000     -74.99900000
H      -46.45760000     -30.41890000     -74.83060000
