40
Properties=species:S:1:pos:R:3 #=T CELL(abcABC):=T 1.889726e+02=T 90.00000=T Traj:=T positionsangstrom=T Step:=T 0=T Bead:=T pbc="F F F"
C      -41.71560000     -31.71270000     -71.14340000
C      -42.71590000     -31.33670000     -72.05830000
C      -43.87530000     -30.64510000     -71.59850000
C      -44.03400000     -30.36000000     -70.24690000
C      -42.97020000     -30.65730000     -69.33660000
C      -41.78600000     -31.30460000     -69.82550000
H      -40.80010000     -32.08140000     -71.47590000
H      -44.73930000     -30.43540000     -72.29270000
H      -43.02350000     -30.35610000     -68.25610000
H      -41.03470000     -31.60220000     -69.06840000
C      -45.23210000     -29.48690000     -69.88360000
H      -45.13060000     -28.48630000     -70.25020000
H      -45.20770000     -29.32290000     -68.78130000
C      -42.54450000     -31.59960000     -73.57560000
H      -43.23360000     -30.96530000     -74.12540000
H      -41.56190000     -31.39430000     -73.88970000
S      -46.80300000     -29.91670000     -70.53220000
S      -42.75540000     -33.38440000     -74.15240000
C      -47.02940000     -31.69850000     -70.16340000
H      -46.19820000     -31.95080000     -69.52870000
H      -47.96650000     -31.90380000     -69.57180000
C      -44.25980000     -34.22500000     -73.38530000
H      -44.30670000     -35.15080000     -74.00190000
H      -45.14520000     -33.61780000     -73.57280000
C      -44.04790000     -34.74500000     -71.90020000
H      -43.04160000     -35.11900000     -71.85280000
H      -44.00140000     -33.88090000     -71.28480000
C      -46.84620000     -32.58410000     -71.37280000
H      -45.79070000     -32.51260000     -71.72290000
H      -47.52180000     -32.22680000     -72.12540000
C      -47.33660000     -34.01760000     -71.06230000
C      -48.64030000     -34.26860000     -70.62630000
C      -46.49000000     -35.20470000     -71.12300000
H      -49.49860000     -33.63560000     -70.31430000
C      -47.24950000     -36.35090000     -70.89420000
C      -45.12120000     -35.62510000     -71.42960000
C      -44.94220000     -36.97920000     -71.47960000
S      -48.88740000     -35.95410000     -70.29550000
S      -46.45200000     -37.87650000     -71.05370000
H      -44.17320000     -37.67880000     -71.73770000
