40
Properties=species:S:1:pos:R:3 #=T CELL(abcABC):=T 1.889726e+02=T 90.00000=T Traj:=T positionsangstrom=T Step:=T 0=T Bead:=T pbc="F F F"
C      -47.85560000     -34.61850000     -71.40090000
C      -48.19540000     -33.53780000     -72.20270000
C      -48.05030000     -32.25560000     -71.71440000
C      -47.25060000     -32.03300000     -70.51960000
C      -47.05680000     -33.14640000     -69.71540000
C      -47.43990000     -34.42400000     -70.10410000
H      -48.00290000     -35.60650000     -71.80140000
H      -48.27170000     -31.44780000     -72.38550000
H      -46.50500000     -32.96440000     -68.80890000
H      -47.09830000     -35.19210000     -69.46290000
C      -46.77200000     -30.70110000     -70.16760000
H      -47.35540000     -30.28920000     -69.30580000
H      -46.89880000     -29.99640000     -71.00610000
C      -48.52710000     -33.71240000     -73.67670000
H      -48.90480000     -34.72330000     -73.85940000
H      -49.12820000     -32.87110000     -73.97300000
S      -45.05550000     -30.73870000     -69.56380000
S      -46.87320000     -33.83950000     -74.62010000
C      -44.17740000     -30.61620000     -71.08160000
H      -44.75160000     -31.08510000     -71.94250000
H      -43.90710000     -29.59870000     -71.40110000
C      -45.77070000     -32.59800000     -74.01080000
H      -46.34700000     -32.20640000     -73.20190000
H      -45.63760000     -31.88050000     -74.81620000
C      -44.39990000     -33.24990000     -73.63640000
H      -43.98100000     -33.73360000     -74.50090000
H      -43.63620000     -32.41780000     -73.50010000
C      -42.81570000     -31.39020000     -71.02370000
H      -42.30060000     -30.69980000     -70.34270000
H      -42.35460000     -31.25270000     -71.95140000
C      -42.89590000     -32.79150000     -70.63320000
C      -42.33480000     -33.14770000     -69.40040000
C      -43.63730000     -33.87380000     -71.19290000
H      -41.95960000     -32.34240000     -68.72860000
C      -43.72200000     -34.95050000     -70.32020000
C      -44.35380000     -34.19070000     -72.47380000
C      -44.95250000     -35.45360000     -72.39190000
S      -42.79400000     -34.70790000     -68.87550000
S      -44.53500000     -36.32810000     -70.93980000
H      -45.43220000     -35.94950000     -73.23350000
