40
Properties=species:S:1:pos:R:3 #=T CELL(abcABC):=T 1.889726e+02=T 90.00000=T Traj:=T positionsangstrom=T Step:=T 0=T Bead:=T pbc="F F F"
C      -41.46800000     -31.72860000     -71.72010000
C      -42.62930000     -31.55650000     -72.46880000
C      -43.62540000     -30.78270000     -71.84390000
C      -43.57350000     -30.42430000     -70.49160000
C      -42.46120000     -30.77230000     -69.72610000
C      -41.38480000     -31.40350000     -70.35610000
H      -40.58640000     -32.21220000     -72.23280000
H      -44.55190000     -30.63170000     -72.40870000
H      -42.40870000     -30.49000000     -68.63980000
H      -40.53560000     -31.80930000     -69.80780000
C      -44.66960000     -29.68310000     -69.76620000
H      -44.50440000     -28.59320000     -69.68290000
H      -44.57110000     -30.02410000     -68.71730000
C      -42.92020000     -32.02320000     -73.92730000
H      -43.87460000     -31.60330000     -74.21650000
H      -42.18890000     -31.58010000     -74.58470000
S      -46.39020000     -29.98330000     -70.48460000
S      -43.03170000     -33.83840000     -74.25300000
C      -46.60390000     -31.75940000     -70.10910000
H      -45.58400000     -32.12770000     -69.89920000
H      -47.15480000     -32.00190000     -69.22740000
C      -44.55000000     -34.29030000     -73.24420000
H      -44.94620000     -35.29590000     -73.62160000
H      -45.42590000     -33.58820000     -73.39880000
C      -44.31180000     -34.38290000     -71.75150000
H      -43.34670000     -34.78090000     -71.54510000
H      -44.39480000     -33.42390000     -71.24640000
C      -47.16760000     -32.46440000     -71.36920000
H      -46.42900000     -32.42950000     -72.21280000
H      -48.11330000     -31.92320000     -71.64890000
C      -47.60350000     -33.86250000     -71.08520000
C      -48.90530000     -34.13580000     -70.81470000
C      -46.77160000     -35.02750000     -70.87870000
H      -49.81190000     -33.56200000     -70.85600000
C      -47.46250000     -36.18890000     -70.55110000
C      -45.33580000     -35.33120000     -71.15430000
C      -45.01110000     -36.60800000     -70.83720000
S      -49.18710000     -35.84600000     -70.45190000
S      -46.42820000     -37.57720000     -70.43710000
H      -44.06140000     -37.13790000     -71.05920000
