40
Properties=species:S:1:pos:R:3 #=T CELL(abcABC):=T 1.889726e+02=T 90.00000=T Traj:=T positionsangstrom=T Step:=T 0=T Bead:=T pbc="F F F"
C      -41.52190000     -32.17220000     -72.21150000
C      -42.75500000     -31.64570000     -72.76250000
C      -43.59910000     -30.83890000     -72.00160000
C      -43.29640000     -30.45610000     -70.69760000
C      -42.03830000     -30.81840000     -70.20740000
C      -41.20230000     -31.77760000     -70.92300000
H      -40.88100000     -32.76330000     -72.71020000
H      -44.58440000     -30.57840000     -72.39990000
H      -41.71550000     -30.45310000     -69.26970000
H      -40.24640000     -32.11420000     -70.43090000
C      -44.16440000     -29.66630000     -69.80980000
H      -44.04500000     -28.56610000     -69.95320000
H      -43.89040000     -29.92980000     -68.79120000
C      -43.19870000     -32.11720000     -74.16230000
H      -44.14530000     -31.59670000     -74.41780000
H      -42.55370000     -31.75010000     -74.93040000
S      -45.97040000     -29.86360000     -70.26810000
S      -43.20620000     -34.02570000     -74.37130000
C      -46.27170000     -31.65460000     -70.08570000
H      -45.42600000     -32.32950000     -70.07200000
H      -46.77470000     -31.78180000     -69.12390000
C      -44.57200000     -34.76190000     -73.33540000
H      -44.52480000     -35.79050000     -73.62830000
H      -45.50260000     -34.26510000     -73.68580000
C      -44.37880000     -34.46610000     -71.83600000
H      -43.40790000     -34.79880000     -71.47000000
H      -44.35950000     -33.38510000     -71.79640000
C      -47.26880000     -32.22490000     -71.15340000
H      -46.75850000     -32.14050000     -72.11850000
H      -48.18270000     -31.52680000     -71.13240000
C      -47.75050000     -33.69090000     -70.84430000
C      -49.02590000     -33.95330000     -70.37120000
C      -46.87140000     -34.87730000     -70.81840000
H      -49.77580000     -33.11150000     -70.25740000
C      -47.58710000     -35.95360000     -70.34440000
C      -45.50430000     -35.28990000     -71.13390000
C      -45.24060000     -36.63240000     -70.91530000
S      -49.29900000     -35.69130000     -70.00450000
S      -46.68160000     -37.42270000     -70.33980000
H      -44.37040000     -37.19420000     -71.18130000
