40
Properties=species:S:1:pos:R:3 #=T CELL(abcABC):=T 1.889726e+02=T 90.00000=T Traj:=T positionsangstrom=T Step:=T 0=T Bead:=T pbc="F F F"
C      -46.79520000     -36.79430000     -71.38650000
C      -47.47330000     -35.76500000     -70.65460000
C      -46.89310000     -35.40040000     -69.48200000
C      -45.66710000     -35.99910000     -68.95700000
C      -45.01460000     -36.95650000     -69.76000000
C      -45.61850000     -37.41370000     -70.92210000
H      -47.14820000     -37.11870000     -72.36050000
H      -47.31770000     -34.51200000     -68.95670000
H      -44.06290000     -37.34230000     -69.58880000
H      -45.00450000     -38.09310000     -71.55260000
C      -45.06760000     -35.42800000     -67.65270000
H      -43.98720000     -35.85970000     -67.46950000
H      -45.63230000     -35.69330000     -66.77410000
C      -48.81010000     -35.21300000     -71.13820000
H      -49.10690000     -35.51320000     -72.15040000
H      -49.61910000     -35.45460000     -70.41610000
S      -44.82830000     -33.66680000     -67.67890000
S      -48.78470000     -33.32510000     -71.10790000
C      -43.66380000     -33.33500000     -69.06040000
H      -42.99000000     -32.55160000     -68.66900000
H      -43.13340000     -34.21100000     -69.46020000
C      -47.46420000     -33.05820000     -72.34760000
H      -47.77760000     -33.39190000     -73.25930000
H      -46.69830000     -33.74190000     -71.99200000
C      -47.03700000     -31.54080000     -72.32100000
H      -47.84050000     -30.91820000     -72.73780000
H      -46.83280000     -31.33320000     -71.29990000
C      -44.55470000     -32.70840000     -70.17670000
H      -44.98800000     -31.79500000     -69.75570000
H      -45.42510000     -33.45580000     -70.31260000
C      -43.78930000     -32.38800000     -71.40450000
C      -42.46590000     -32.51690000     -71.46790000
C      -44.36500000     -31.82100000     -72.59780000
H      -41.89860000     -32.92670000     -70.57770000
C      -43.40540000     -31.53760000     -73.52600000
C      -45.67490000     -31.32020000     -73.01210000
C      -45.66610000     -30.74510000     -74.25670000
S      -41.74750000     -32.04040000     -73.03890000
S      -44.08000000     -30.68250000     -74.94820000
H      -46.51830000     -30.13360000     -74.66360000
