40
Properties=species:S:1:pos:R:3 #=T CELL(abcABC):=T 1.889726e+02=T 90.00000=T Traj:=T positionsangstrom=T Step:=T 0=T Bead:=T pbc="F F F"
C      -41.52970000     -31.96420000     -72.02150000
C      -42.72050000     -31.56620000     -72.71260000
C      -43.71320000     -30.98910000     -71.96230000
C      -43.44610000     -30.51090000     -70.61550000
C      -42.21830000     -30.80560000     -70.01480000
C      -41.26870000     -31.56860000     -70.73670000
H      -40.79080000     -32.52100000     -72.72770000
H      -44.64100000     -30.63830000     -72.38370000
H      -42.03710000     -30.44130000     -69.00190000
H      -40.29650000     -31.82690000     -70.21510000
C      -44.55350000     -29.80870000     -69.78940000
H      -44.32060000     -28.74880000     -69.95000000
H      -44.49300000     -30.02810000     -68.73660000
C      -42.88480000     -32.01580000     -74.11610000
H      -43.77390000     -31.51480000     -74.65690000
H      -41.96970000     -31.70540000     -74.63070000
S      -46.29550000     -29.94940000     -70.23470000
S      -42.96830000     -33.88210000     -74.07690000
C      -46.68460000     -31.78620000     -70.08730000
H      -45.71750000     -32.21310000     -69.80940000
H      -47.47450000     -31.93900000     -69.31710000
C      -44.53980000     -34.14470000     -73.18600000
H      -44.86860000     -35.09800000     -73.53190000
H      -45.12210000     -33.32000000     -73.51970000
C      -44.37820000     -34.32430000     -71.64750000
H      -43.33870000     -34.69890000     -71.41810000
H      -44.49030000     -33.32100000     -71.18420000
C      -47.21490000     -32.39580000     -71.43870000
H      -46.49800000     -32.41880000     -72.25500000
H      -48.13120000     -31.79800000     -71.70820000
C      -47.66300000     -33.81610000     -71.11390000
C      -48.96350000     -34.14340000     -70.85970000
C      -46.79240000     -34.93170000     -70.94370000
H      -49.75870000     -33.47720000     -70.88340000
C      -47.51440000     -36.09680000     -70.56380000
C      -45.39020000     -35.27530000     -71.10420000
C      -45.07670000     -36.57670000     -70.79300000
S      -49.24640000     -35.77620000     -70.28340000
S      -46.51220000     -37.54030000     -70.36880000
H      -44.07580000     -37.06920000     -70.96080000
