40
Properties=species:S:1:pos:R:3 #=T CELL(abcABC):=T 1.889726e+02=T 90.00000=T Traj:=T positionsangstrom=T Step:=T 0=T Bead:=T pbc="F F F"
C      -41.53040000     -31.96960000     -72.19340000
C      -42.74210000     -31.57890000     -72.83520000
C      -43.63830000     -30.85220000     -72.07760000
C      -43.40850000     -30.59590000     -70.67970000
C      -42.22730000     -30.98970000     -70.07860000
C      -41.24910000     -31.56160000     -70.89130000
H      -40.77260000     -32.56550000     -72.76380000
H      -44.60570000     -30.61440000     -72.44730000
H      -42.21750000     -30.81330000     -69.03490000
H      -40.30000000     -31.73730000     -70.39760000
C      -44.37060000     -29.65310000     -69.85750000
H      -44.17930000     -28.62540000     -70.18200000
H      -44.13830000     -29.68040000     -68.76550000
C      -42.99140000     -32.14330000     -74.16400000
H      -43.91630000     -31.86930000     -74.62610000
H      -42.19410000     -31.88690000     -74.83340000
S      -46.18330000     -29.95330000     -70.14330000
S      -42.98270000     -34.02060000     -74.18990000
C      -46.44310000     -31.74020000     -69.93800000
H      -45.46210000     -32.17000000     -69.72280000
H      -46.98100000     -31.96970000     -69.03630000
C      -44.48110000     -34.44000000     -73.22370000
H      -44.78580000     -35.45420000     -73.53150000
H      -45.38270000     -33.82290000     -73.46570000
C      -44.28400000     -34.35410000     -71.70640000
H      -43.29510000     -34.69630000     -71.48690000
H      -44.32370000     -33.32370000     -71.37690000
C      -47.28050000     -32.27260000     -71.16420000
H      -46.67350000     -32.18880000     -72.08570000
H      -48.09670000     -31.61930000     -71.26170000
C      -47.71390000     -33.71250000     -70.88370000
C      -49.02700000     -34.03640000     -70.65700000
C      -46.83030000     -34.85810000     -70.84850000
H      -49.78140000     -33.28850000     -70.70190000
C      -47.60690000     -36.00780000     -70.57600000
C      -45.39550000     -35.22700000     -71.04140000
C      -45.18820000     -36.59180000     -70.81060000
S      -49.29380000     -35.79450000     -70.37930000
S      -46.63260000     -37.41110000     -70.29010000
H      -44.19130000     -37.06100000     -70.88630000
