40
Properties=species:S:1:pos:R:3 #=T CELL(abcABC):=T 1.889726e+02=T 90.00000=T Traj:=T positionsangstrom=T Step:=T 0=T Bead:=T pbc="F F F"
C      -41.96110000     -32.87450000     -72.05240000
C      -42.84310000     -32.08810000     -72.82740000
C      -43.47650000     -31.02260000     -72.16170000
C      -43.17060000     -30.66150000     -70.81780000
C      -42.20130000     -31.39890000     -70.14100000
C      -41.61690000     -32.54610000     -70.68820000
H      -41.49660000     -33.67550000     -72.52860000
H      -44.27010000     -30.51540000     -72.64160000
H      -42.13160000     -31.07850000     -69.13560000
H      -40.89430000     -33.15940000     -70.11130000
C      -43.97490000     -29.59510000     -70.16100000
H      -43.57900000     -28.58290000     -70.44460000
H      -43.93150000     -29.72760000     -69.01530000
C      -43.03420000     -32.43100000     -74.26760000
H      -43.76410000     -31.82110000     -74.72490000
H      -42.13320000     -32.26640000     -74.85190000
S      -45.73000000     -29.57330000     -70.62930000
S      -43.44540000     -34.24540000     -74.55080000
C      -46.33050000     -31.18250000     -69.80180000
H      -45.45070000     -31.55920000     -69.18170000
H      -47.12420000     -30.94220000     -69.09650000
C      -44.86880000     -34.49890000     -73.32940000
H      -45.43210000     -35.41510000     -73.57140000
H      -45.62230000     -33.67840000     -73.21720000
C      -44.36820000     -34.72540000     -71.88230000
H      -43.54610000     -35.40170000     -71.88640000
H      -44.20420000     -33.80190000     -71.42280000
C      -46.71720000     -32.19170000     -70.94570000
H      -45.89350000     -32.27880000     -71.62850000
H      -47.52540000     -31.82150000     -71.60330000
C      -47.28080000     -33.45170000     -70.38290000
C      -48.54840000     -33.45590000     -69.89110000
C      -46.69230000     -34.77760000     -70.59230000
H      -49.06700000     -32.50970000     -69.82440000
C      -47.65200000     -35.76820000     -70.26020000
C      -45.46570000     -35.35140000     -71.14850000
C      -45.61720000     -36.70540000     -71.26780000
S      -49.09860000     -35.07920000     -69.65320000
S      -47.04840000     -37.41140000     -70.54440000
H      -44.92260000     -37.31770000     -71.79620000
