40
Properties=species:S:1:pos:R:3 #=T CELL(abcABC):=T 1.889726e+02=T 90.00000=T Traj:=T positionsangstrom=T Step:=T 0=T Bead:=T pbc="F F F"
C      -48.14300000     -29.97140000     -72.79580000
C      -46.84090000     -30.39370000     -72.87030000
C      -46.71770000     -31.67240000     -73.46730000
C      -47.81340000     -32.40360000     -73.91770000
C      -49.10320000     -31.88600000     -73.82980000
C      -49.24940000     -30.59780000     -73.33780000
H      -48.30050000     -29.03370000     -72.32050000
H      -45.71740000     -32.07310000     -73.65310000
H      -49.91470000     -32.51220000     -74.13120000
H      -50.22880000     -30.18810000     -73.24380000
C      -47.52700000     -33.82170000     -74.38870000
H      -46.48680000     -33.81450000     -74.68120000
H      -48.26620000     -34.27220000     -75.21080000
C      -45.75120000     -29.69570000     -72.14410000
H      -44.97560000     -29.52330000     -72.99040000
H      -46.09490000     -28.77940000     -71.70390000
S      -47.84440000     -34.90670000     -72.92200000
S      -44.88210000     -30.65850000     -70.89380000
C      -46.42650000     -34.77580000     -71.76680000
H      -46.19040000     -33.67560000     -71.67860000
H      -46.77200000     -34.99390000     -70.84460000
C      -43.43670000     -31.36300000     -71.86840000
H      -42.52500000     -30.90520000     -71.46590000
H      -43.54060000     -31.11120000     -72.91710000
C      -43.27480000     -32.85450000     -71.86780000
H      -44.05530000     -33.30780000     -72.44410000
H      -42.31520000     -33.15040000     -72.31580000
C      -45.24570000     -35.66020000     -72.10760000
H      -44.60010000     -35.33400000     -72.93680000
H      -45.65000000     -36.63230000     -72.37160000
C      -44.49300000     -35.76370000     -70.82690000
C      -44.66160000     -36.93710000     -70.03100000
C      -43.59660000     -34.85560000     -70.21610000
H      -45.16260000     -37.82370000     -70.33730000
C      -43.21390000     -35.23670000     -68.94360000
C      -43.17690000     -33.51660000     -70.53590000
C      -42.46070000     -32.88240000     -69.52340000
S      -43.80070000     -36.86270000     -68.50210000
S      -42.36370000     -33.93780000     -68.06490000
H      -42.33050000     -31.85240000     -69.49830000
