40
Properties=species:S:1:pos:R:3 #=T CELL(abcABC):=T 1.889726e+02=T 90.00000=T Traj:=T positionsangstrom=T Step:=T 0=T Bead:=T pbc="F F F"
C      -41.76000000     -32.91140000     -72.11060000
C      -42.66740000     -32.13980000     -72.87260000
C      -43.31620000     -31.05350000     -72.23630000
C      -43.15410000     -30.79750000     -70.90250000
C      -42.41150000     -31.66990000     -70.13430000
C      -41.69610000     -32.71790000     -70.71850000
H      -41.15620000     -33.61240000     -72.70320000
H      -44.01510000     -30.41590000     -72.77960000
H      -42.20280000     -31.34700000     -69.13460000
H      -41.12580000     -33.43680000     -70.21170000
C      -43.68140000     -29.55470000     -70.34940000
H      -43.36730000     -28.73370000     -70.94600000
H      -43.39240000     -29.44420000     -69.35540000
C      -43.05880000     -32.44410000     -74.29220000
H      -43.95240000     -31.85950000     -74.56390000
H      -42.30150000     -32.15140000     -75.11640000
S      -45.60040000     -29.42350000     -70.39820000
S      -43.45450000     -34.21190000     -74.64580000
C      -46.29010000     -31.04400000     -69.78990000
H      -45.60690000     -31.46230000     -69.06160000
H      -47.18280000     -30.78400000     -69.22180000
C      -44.85200000     -34.54530000     -73.46250000
H      -45.07970000     -35.47150000     -74.02420000
H      -45.57810000     -33.79950000     -73.69200000
C      -44.48670000     -34.68040000     -72.01070000
H      -43.45560000     -35.17590000     -71.96640000
H      -44.26700000     -33.67680000     -71.62270000
C      -46.56970000     -32.11380000     -70.85940000
H      -45.61300000     -32.41260000     -71.29730000
H      -47.25040000     -31.61300000     -71.54250000
C      -47.30970000     -33.46410000     -70.30920000
C      -48.60020000     -33.40900000     -69.87190000
C      -46.82620000     -34.78470000     -70.62240000
H      -49.11930000     -32.47110000     -69.63550000
C      -47.75330000     -35.74380000     -70.29000000
C      -45.61830000     -35.42110000     -71.16540000
C      -45.67060000     -36.79210000     -71.21670000
S      -49.16830000     -35.03800000     -69.53980000
S      -47.17700000     -37.43180000     -70.51080000
H      -45.00870000     -37.49320000     -71.72250000
