40
Properties=species:S:1:pos:R:3 #=T CELL(abcABC):=T 1.889726e+02=T 90.00000=T Traj:=T positionsangstrom=T Step:=T 0=T Bead:=T pbc="F F F"
C      -47.46120000     -35.76150000     -74.01340000
C      -46.50240000     -36.19020000     -73.04490000
C      -46.88820000     -36.08280000     -71.70600000
C      -48.17460000     -35.61180000     -71.32450000
C      -49.07040000     -35.24160000     -72.30440000
C      -48.72860000     -35.19260000     -73.61860000
H      -47.20960000     -35.68830000     -75.10000000
H      -46.14510000     -36.41240000     -70.92800000
H      -49.98360000     -34.74590000     -71.96010000
H      -49.28900000     -34.66180000     -74.38990000
C      -48.54290000     -35.40360000     -69.91400000
H      -49.11880000     -36.26210000     -69.71090000
H      -49.26020000     -34.64760000     -69.76190000
C      -45.20140000     -36.89760000     -73.48810000
H      -45.23950000     -37.90990000     -73.14240000
H      -45.28480000     -36.90900000     -74.60880000
S      -47.14740000     -34.92110000     -68.75120000
S      -43.64390000     -36.23730000     -72.84450000
C      -46.63550000     -33.36280000     -69.65000000
H      -46.09940000     -33.62150000     -70.57770000
H      -47.47190000     -32.67700000     -69.85640000
C      -44.00870000     -34.43680000     -72.52450000
H      -45.06840000     -34.26610000     -72.34550000
H      -43.70990000     -33.91460000     -73.37530000
C      -43.24030000     -33.93280000     -71.33950000
H      -43.60440000     -34.28170000     -70.38740000
H      -42.22390000     -34.34210000     -71.28750000
C      -45.65690000     -32.57870000     -68.81720000
H      -44.89000000     -33.30720000     -68.49250000
H      -46.07700000     -32.28510000     -67.88760000
C      -45.05060000     -31.41770000     -69.57130000
C      -45.64570000     -30.17010000     -69.57780000
C      -43.93520000     -31.44610000     -70.57140000
H      -46.52870000     -29.80710000     -69.11410000
C      -43.60960000     -30.15260000     -71.03240000
C      -43.15490000     -32.40780000     -71.31000000
C      -42.20750000     -31.88030000     -72.16190000
S      -44.66980000     -28.95550000     -70.41530000
S      -42.29000000     -30.14000000     -72.14160000
H      -41.41570000     -32.28560000     -72.80140000
