40
Properties=species:S:1:pos:R:3 #=T CELL(abcABC):=T 1.889726e+02=T 90.00000=T Traj:=T positionsangstrom=T Step:=T 0=T Bead:=T pbc="F F F"
C      -47.41880000     -35.89710000     -74.13320000
C      -46.54680000     -36.39220000     -73.10030000
C      -46.93930000     -36.24380000     -71.76480000
C      -48.25070000     -35.72280000     -71.50380000
C      -49.02300000     -35.16630000     -72.54060000
C      -48.57610000     -35.23100000     -73.83210000
H      -47.01520000     -36.01830000     -75.18430000
H      -46.24010000     -36.55380000     -71.02770000
H      -50.05440000     -34.81270000     -72.23960000
H      -49.08390000     -34.96090000     -74.72430000
C      -48.62140000     -35.60380000     -70.04450000
H      -48.71720000     -36.72370000     -69.77010000
H      -49.62070000     -35.11450000     -69.92840000
C      -45.18910000     -36.90850000     -73.50080000
H      -45.07070000     -37.97850000     -73.18090000
H      -45.02170000     -36.97210000     -74.55800000
S      -47.40970000     -34.82780000     -68.76040000
S      -43.68880000     -36.07990000     -72.81290000
C      -46.48940000     -33.60450000     -69.81730000
H      -45.93280000     -34.14950000     -70.61510000
H      -47.22610000     -33.01180000     -70.32290000
C      -44.07370000     -34.32950000     -72.30990000
H      -45.18220000     -34.15750000     -72.06690000
H      -43.80080000     -33.70030000     -73.24560000
C      -43.20510000     -33.83010000     -71.13870000
H      -43.76220000     -34.09000000     -70.21690000
H      -42.26900000     -34.36990000     -71.00730000
C      -45.57220000     -32.73090000     -68.96080000
H      -44.77460000     -33.26600000     -68.43420000
H      -46.25050000     -32.30480000     -68.20590000
C      -44.97100000     -31.48690000     -69.55240000
C      -45.44520000     -30.19060000     -69.27600000
C      -43.89890000     -31.43680000     -70.54390000
H      -46.22900000     -29.91770000     -68.61230000
C      -43.61610000     -30.09560000     -71.03070000
C      -43.03200000     -32.36380000     -71.18940000
C      -42.09160000     -31.79240000     -72.03570000
S      -44.66670000     -28.90500000     -70.27320000
S      -42.30560000     -30.04790000     -72.18690000
H      -41.18140000     -32.20100000     -72.54990000
