40
Properties=species:S:1:pos:R:3 #=T CELL(abcABC):=T 1.889726e+02=T 90.00000=T Traj:=T positionsangstrom=T Step:=T 0=T Bead:=T pbc="F F F"
C      -47.53800000     -35.23980000     -73.47870000
C      -46.87710000     -36.15350000     -72.67000000
C      -47.16610000     -36.31520000     -71.26990000
C      -48.13490000     -35.46990000     -70.67900000
C      -48.74370000     -34.51010000     -71.54240000
C      -48.60690000     -34.52570000     -72.93760000
H      -47.26580000     -35.18730000     -74.52040000
H      -46.69970000     -37.08490000     -70.67720000
H      -49.57450000     -33.94410000     -71.19750000
H      -49.22960000     -33.80730000     -73.45080000
C      -48.17240000     -35.42050000     -69.17830000
H      -48.38560000     -36.42240000     -68.86340000
H      -48.94650000     -34.90440000     -68.68920000
C      -45.78720000     -37.01580000     -73.22110000
H      -45.82350000     -38.02600000     -72.76900000
H      -45.99860000     -37.12400000     -74.35350000
S      -46.57220000     -34.92410000     -68.30360000
S      -44.08060000     -36.44300000     -72.74110000
C      -46.14900000     -33.50120000     -69.38710000
H      -46.14510000     -33.89050000     -70.40340000
H      -46.96050000     -32.78120000     -69.34730000
C      -44.25720000     -34.62090000     -72.86000000
H      -45.24670000     -34.30200000     -72.44770000
H      -44.24610000     -34.24420000     -73.86970000
C      -43.24010000     -33.92480000     -72.01550000
H      -43.22480000     -34.14510000     -70.96650000
H      -42.21760000     -34.21870000     -72.26390000
C      -44.82740000     -32.89510000     -69.05850000
H      -44.00760000     -33.59450000     -69.14180000
H      -44.92450000     -32.56520000     -68.03940000
C      -44.47020000     -31.68960000     -69.83290000
C      -44.92870000     -30.48480000     -69.35610000
C      -43.86930000     -31.51960000     -71.15760000
H      -45.49360000     -30.29630000     -68.41430000
C      -43.88790000     -30.16660000     -71.54110000
C      -43.29090000     -32.41190000     -72.15750000
C      -42.77430000     -31.72650000     -73.20320000
S      -44.50880000     -29.05650000     -70.31220000
S      -43.02170000     -30.02050000     -73.02540000
H      -42.31540000     -32.30270000     -74.04910000
