40
Properties=species:S:1:pos:R:3 #=T CELL(abcABC):=T 1.889726e+02=T 90.00000=T Traj:=T positionsangstrom=T Step:=T 0=T Bead:=T pbc="F F F"
C      -47.64010000     -32.47200000     -67.60640000
C      -46.83330000     -33.56240000     -68.02590000
C      -47.24400000     -34.08020000     -69.20850000
C      -48.19880000     -33.50730000     -70.07880000
C      -48.87730000     -32.33550000     -69.71440000
C      -48.62890000     -31.87760000     -68.41460000
H      -47.45290000     -32.13020000     -66.66450000
H      -46.65230000     -34.94060000     -69.60470000
H      -49.64690000     -31.86850000     -70.34940000
H      -49.17230000     -31.08530000     -68.00070000
C      -48.37400000     -34.13800000     -71.40050000
H      -49.31580000     -33.76510000     -71.70910000
H      -48.47720000     -35.22930000     -71.28340000
C      -45.61260000     -34.00010000     -67.33670000
H      -45.28180000     -33.31160000     -66.56310000
H      -45.78450000     -34.92240000     -66.69740000
S      -47.12430000     -33.57950000     -72.62120000
S      -44.20080000     -34.35420000     -68.38110000
C      -47.04240000     -31.74840000     -72.47670000
H      -47.92650000     -31.40600000     -72.83980000
H      -47.11800000     -31.48440000     -71.42820000
C      -43.81320000     -32.59340000     -68.96050000
H      -42.73400000     -32.44560000     -68.80980000
H      -44.31400000     -31.98680000     -68.22640000
C      -44.20180000     -32.23080000     -70.36260000
H      -45.31450000     -32.49610000     -70.40930000
H      -44.06610000     -31.11630000     -70.59620000
C      -45.68320000     -31.18080000     -73.17800000
H      -45.16340000     -30.69210000     -72.32640000
H      -45.93140000     -30.47420000     -73.87400000
C      -44.84510000     -32.32300000     -73.66080000
C      -44.87050000     -32.66280000     -75.01780000
C      -43.91850000     -33.13380000     -72.82180000
H      -45.44530000     -32.15410000     -75.72400000
C      -43.29650000     -34.08000000     -73.67630000
C      -43.51730000     -33.14450000     -71.40920000
C      -42.49650000     -34.04090000     -71.22100000
S      -43.74790000     -34.02960000     -75.37940000
S      -42.05810000     -34.94430000     -72.68030000
H      -42.10970000     -34.25500000     -70.27400000
