40
Properties=species:S:1:pos:R:3 #=T CELL(abcABC):=T 1.889726e+02=T 90.00000=T Traj:=T positionsangstrom=T Step:=T 0=T Bead:=T pbc="F F F"
C      -41.47040000     -33.50200000     -73.06960000
C      -42.69860000     -32.83110000     -73.24370000
C      -42.96100000     -31.86830000     -72.22960000
C      -42.07930000     -31.71370000     -71.16100000
C      -40.91570000     -32.50570000     -71.01270000
C      -40.64670000     -33.44680000     -71.98090000
H      -40.98460000     -34.20860000     -73.83850000
H      -43.80660000     -31.18590000     -72.31950000
H      -40.33090000     -32.47230000     -70.08870000
H      -39.85090000     -34.15040000     -71.86290000
C      -42.29750000     -30.61900000     -70.09300000
H      -41.97850000     -29.66540000     -70.52110000
H      -41.70870000     -30.88140000     -69.14510000
C      -43.39350000     -32.90250000     -74.61760000
H      -43.87530000     -31.94880000     -74.88250000
H      -42.63680000     -33.02130000     -75.34330000
S      -44.07930000     -30.22170000     -69.63100000
S      -44.68650000     -34.21150000     -74.99780000
C      -44.96890000     -31.85640000     -69.39890000
H      -44.35770000     -32.66770000     -69.78860000
H      -45.12930000     -31.96100000     -68.30260000
C      -45.89940000     -34.31400000     -73.61950000
H      -46.61780000     -35.14850000     -73.93030000
H      -46.55940000     -33.47590000     -73.65470000
C      -45.27790000     -34.49620000     -72.26640000
H      -44.56740000     -35.35190000     -72.26430000
H      -44.96670000     -33.62300000     -71.81680000
C      -46.29600000     -31.74930000     -70.22250000
H      -46.00900000     -31.51620000     -71.21200000
H      -46.83480000     -30.79750000     -69.95630000
C      -47.27340000     -32.84710000     -70.06890000
C      -48.37330000     -32.61110000     -69.31570000
C      -47.21940000     -34.20760000     -70.51250000
H      -48.55680000     -31.63230000     -68.91070000
C      -48.26360000     -34.95050000     -70.02140000
C      -46.38830000     -35.02220000     -71.33550000
C      -46.84740000     -36.35850000     -71.41000000
S      -49.40890000     -33.96850000     -69.06620000
S      -48.28970000     -36.59020000     -70.47790000
H      -46.26250000     -37.10760000     -71.89620000
