40
Properties=species:S:1:pos:R:3 #=T CELL(abcABC):=T 1.889726e+02=T 90.00000=T Traj:=T positionsangstrom=T Step:=T 0=T Bead:=T pbc="F F F"
C      -43.74970000     -28.79770000     -72.08560000
C      -44.33120000     -30.04740000     -72.17020000
C      -43.87800000     -31.07250000     -71.33720000
C      -42.67730000     -30.83850000     -70.56440000
C      -42.20350000     -29.56620000     -70.45500000
C      -42.79000000     -28.57020000     -71.15780000
H      -44.20370000     -28.06190000     -72.78620000
H      -44.16400000     -32.12150000     -71.20220000
H      -41.35530000     -29.37180000     -69.72750000
H      -42.39710000     -27.60760000     -71.09610000
C      -42.20160000     -31.90310000     -69.57760000
H      -42.95200000     -32.21360000     -68.85430000
H      -41.44870000     -31.48380000     -68.93920000
C      -45.42710000     -30.29260000     -73.15080000
H      -46.08870000     -29.38890000     -73.37620000
H      -44.92940000     -30.57600000     -74.09220000
S      -41.62360000     -33.48400000     -70.36500000
S      -46.40580000     -31.81830000     -72.74030000
C      -43.11280000     -34.51760000     -69.87680000
H      -42.68040000     -35.37480000     -69.37020000
H      -43.74600000     -34.04930000     -69.13950000
C      -46.31530000     -32.92170000     -74.14640000
H      -45.39330000     -32.75290000     -74.70770000
H      -47.22250000     -32.88290000     -74.83760000
C      -46.19260000     -34.42740000     -73.78740000
H      -46.24630000     -34.98230000     -74.71990000
H      -45.26480000     -34.56740000     -73.46460000
C      -44.13400000     -34.85570000     -70.98940000
H      -43.66710000     -35.58780000     -71.63500000
H      -44.23660000     -33.95710000     -71.64160000
C      -45.43300000     -35.34000000     -70.49600000
C      -45.62870000     -35.96170000     -69.26360000
C      -46.67070000     -35.41880000     -71.33170000
H      -44.99700000     -36.35360000     -68.49390000
C      -47.76020000     -35.90640000     -70.61970000
C      -47.06690000     -34.95370000     -72.68520000
C      -48.43080000     -35.18650000     -72.90900000
S      -47.26180000     -36.59110000     -69.06700000
S      -49.24590000     -35.94830000     -71.54980000
H      -48.95570000     -34.90400000     -73.79230000
