40
Properties=species:S:1:pos:R:3 #=T CELL(abcABC):=T 1.889726e+02=T 90.00000=T Traj:=T positionsangstrom=T Step:=T 0=T Bead:=T pbc="F F F"
C      -47.73480000     -32.35400000     -67.32910000
C      -46.91140000     -33.20740000     -68.03180000
C      -47.30140000     -33.58060000     -69.34240000
C      -48.48690000     -32.92520000     -69.94100000
C      -49.10050000     -31.90920000     -69.26860000
C      -48.82790000     -31.73410000     -67.90960000
H      -47.48050000     -32.17940000     -66.22210000
H      -46.67190000     -34.26790000     -69.86210000
H      -49.94400000     -31.46480000     -69.78490000
H      -49.53430000     -31.06950000     -67.41470000
C      -48.81510000     -33.22380000     -71.40960000
H      -49.41250000     -32.37380000     -71.88350000
H      -49.43330000     -34.09000000     -71.49820000
C      -45.71940000     -33.92170000     -67.37850000
H      -45.35690000     -33.43900000     -66.40930000
H      -46.09650000     -34.88980000     -67.02000000
S      -47.30450000     -33.47320000     -72.52760000
S      -44.29860000     -34.37520000     -68.51190000
C      -46.80830000     -31.69490000     -72.47550000
H      -47.70730000     -31.13910000     -72.73480000
H      -46.66200000     -31.48770000     -71.48650000
C      -43.57720000     -32.76900000     -69.01290000
H      -42.49080000     -32.74950000     -68.92090000
H      -43.95340000     -32.01490000     -68.33060000
C      -44.11820000     -32.50170000     -70.46030000
H      -45.22080000     -32.51750000     -70.44600000
H      -43.83990000     -31.48860000     -70.88730000
C      -45.51100000     -31.33630000     -73.34820000
H      -44.80250000     -30.75050000     -72.79050000
H      -45.89230000     -30.77140000     -74.24040000
C      -44.65090000     -32.55270000     -73.80360000
C      -44.55090000     -32.86350000     -75.12190000
C      -43.77990000     -33.36820000     -72.92090000
H      -45.18890000     -32.49430000     -75.92190000
C      -43.11830000     -34.26450000     -73.72470000
C      -43.53120000     -33.48870000     -71.48280000
C      -42.61400000     -34.47030000     -71.25970000
S      -43.45220000     -34.19380000     -75.45950000
S      -42.04850000     -35.27350000     -72.66970000
H      -42.33300000     -34.86190000     -70.29470000
