40
Properties=species:S:1:pos:R:3 #=T CELL(abcABC):=T 1.889726e+02=T 90.00000=T Traj:=T positionsangstrom=T Step:=T 0=T Bead:=T pbc="F F F"
C      -47.25090000     -32.22410000     -67.71590000
C      -47.04350000     -33.47770000     -68.40090000
C      -47.53380000     -33.64740000     -69.65390000
C      -48.12300000     -32.56990000     -70.37360000
C      -48.28980000     -31.37010000     -69.71060000
C      -47.85530000     -31.16950000     -68.39290000
H      -47.00150000     -32.12550000     -66.69780000
H      -47.31660000     -34.57440000     -70.17090000
H      -48.76060000     -30.59570000     -70.29130000
H      -48.00240000     -30.19910000     -67.92700000
C      -48.72950000     -32.73660000     -71.70200000
H      -49.48420000     -31.93830000     -71.88860000
H      -49.18740000     -33.67680000     -71.76940000
C      -46.36780000     -34.59760000     -67.60760000
H      -46.16100000     -34.25500000     -66.59100000
H      -46.88290000     -35.54130000     -67.62090000
S      -47.35320000     -32.64630000     -73.00970000
S      -44.82070000     -35.03090000     -68.42540000
C      -46.41500000     -31.29870000     -72.24180000
H      -46.88880000     -30.26560000     -72.15880000
H      -46.11610000     -31.64320000     -71.25000000
C      -43.88660000     -33.46340000     -68.64080000
H      -42.85550000     -33.60170000     -68.27310000
H      -44.38580000     -32.70960000     -67.95230000
C      -44.06620000     -32.84670000     -70.07250000
H      -45.12750000     -32.64250000     -70.17420000
H      -43.53140000     -31.92330000     -70.02040000
C      -45.17750000     -31.08260000     -73.07620000
H      -44.48160000     -30.47690000     -72.39350000
H      -45.39440000     -30.45780000     -73.93660000
C      -44.51470000     -32.39490000     -73.47990000
C      -44.33600000     -32.65320000     -74.82250000
C      -43.82550000     -33.40050000     -72.62650000
H      -44.81470000     -32.13520000     -75.68340000
C      -43.29830000     -34.40010000     -73.44330000
C      -43.47720000     -33.69740000     -71.23120000
C      -42.63790000     -34.79700000     -71.06210000
S      -43.53720000     -34.19110000     -75.14660000
S      -42.37150000     -35.57890000     -72.61520000
H      -42.23670000     -35.13280000     -70.05620000
