40
Properties=species:S:1:pos:R:3 #=T CELL(abcABC):=T 1.889726e+02=T 90.00000=T Traj:=T positionsangstrom=T Step:=T 0=T Bead:=T pbc="F F F"
C      -48.28900000     -34.76850000     -72.16240000
C      -47.57220000     -35.82540000     -71.65560000
C      -47.27380000     -35.80680000     -70.26700000
C      -47.74330000     -34.78840000     -69.42300000
C      -48.49170000     -33.74710000     -69.99750000
C      -48.71290000     -33.70550000     -71.35040000
H      -48.56180000     -34.72100000     -73.24610000
H      -46.59920000     -36.61550000     -69.93380000
H      -48.84350000     -32.91800000     -69.33280000
H      -49.28620000     -32.91590000     -71.89980000
C      -47.49560000     -34.72360000     -67.94680000
H      -47.62460000     -35.64930000     -67.46850000
H      -48.14980000     -33.97980000     -67.51570000
C      -46.97420000     -36.92480000     -72.43800000
H      -47.05840000     -37.90910000     -71.89810000
H      -47.40890000     -36.99230000     -73.50110000
S      -45.68710000     -34.37510000     -67.58690000
S      -45.19740000     -36.66300000     -72.61310000
C      -45.17370000     -32.82900000     -68.53280000
H      -46.17200000     -32.55430000     -68.91120000
H      -44.70840000     -32.10220000     -67.87200000
C      -44.97400000     -34.92220000     -73.19640000
H      -45.61640000     -34.25680000     -72.64280000
H      -45.26380000     -34.72000000     -74.16880000
C      -43.55170000     -34.39040000     -72.95400000
H      -43.26370000     -34.70140000     -71.97900000
H      -42.88420000     -34.89760000     -73.54940000
C      -44.35210000     -33.20720000     -69.74050000
H      -44.99110000     -33.89990000     -70.36090000
H      -43.43200000     -33.80570000     -69.75480000
C      -44.03330000     -31.98700000     -70.58110000
C      -44.17340000     -30.69440000     -70.10980000
C      -43.65570000     -31.90710000     -72.00970000
H      -44.56820000     -30.48310000     -69.15740000
C      -43.69500000     -30.63080000     -72.54770000
C      -43.41230000     -32.92880000     -73.04520000
C      -43.21290000     -32.38210000     -74.24880000
S      -43.90860000     -29.40570000     -71.29630000
S      -43.34590000     -30.62370000     -74.29610000
H      -42.90330000     -32.84140000     -75.20920000
