40
Properties=species:S:1:pos:R:3 #=T CELL(abcABC):=T 1.889726e+02=T 90.00000=T Traj:=T positionsangstrom=T Step:=T 0=T Bead:=T pbc="F F F"
C      -48.10360000     -34.71320000     -72.34980000
C      -47.43890000     -35.83030000     -71.73830000
C      -47.14720000     -35.76760000     -70.36680000
C      -47.57510000     -34.66340000     -69.61320000
C      -48.13860000     -33.56200000     -70.26190000
C      -48.42150000     -33.59310000     -71.60440000
H      -48.20770000     -34.76950000     -73.43730000
H      -46.50020000     -36.45740000     -69.88480000
H      -48.52190000     -32.76980000     -69.62700000
H      -48.93730000     -32.75550000     -71.97700000
C      -47.42830000     -34.78290000     -68.13660000
H      -47.74830000     -35.79800000     -67.81140000
H      -47.96470000     -34.05180000     -67.57820000
C      -47.03250000     -36.94130000     -72.64130000
H      -47.12790000     -37.85590000     -72.00850000
H      -47.61010000     -36.92220000     -73.60970000
S      -45.68010000     -34.65660000     -67.52370000
S      -45.21820000     -36.64450000     -73.02230000
C      -45.09670000     -33.04750000     -68.29500000
H      -46.03810000     -32.46880000     -68.14500000
H      -44.30240000     -32.67060000     -67.54230000
C      -45.11680000     -34.87150000     -73.17000000
H      -45.76730000     -34.40880000     -72.48270000
H      -45.43830000     -34.60400000     -74.18100000
C      -43.67060000     -34.36900000     -72.90200000
H      -43.35120000     -34.70400000     -71.92960000
H      -43.02420000     -34.82040000     -73.67760000
C      -44.54900000     -33.20540000     -69.71790000
H      -45.17560000     -33.96770000     -70.21880000
H      -43.49820000     -33.58740000     -69.59280000
C      -44.35870000     -31.97460000     -70.51790000
C      -44.55200000     -30.68800000     -69.98780000
C      -43.91080000     -31.98690000     -71.90070000
H      -44.80900000     -30.31260000     -69.01960000
C      -43.69370000     -30.65400000     -72.28040000
C      -43.54790000     -32.88660000     -72.98720000
C      -43.11520000     -32.23740000     -74.09420000
S      -44.10210000     -29.42260000     -71.16750000
S      -43.10890000     -30.49940000     -73.96610000
H      -42.93990000     -32.78460000     -74.99210000
