40
Properties=species:S:1:pos:R:3 #=T CELL(abcABC):=T 1.889726e+02=T 90.00000=T Traj:=T positionsangstrom=T Step:=T 0=T Bead:=T pbc="F F F"
C      -48.49240000     -34.75950000     -72.07750000
C      -47.65430000     -35.76920000     -71.51680000
C      -47.36050000     -35.72150000     -70.17700000
C      -47.83230000     -34.66860000     -69.34910000
C      -48.59560000     -33.68030000     -69.94030000
C      -49.00860000     -33.78210000     -71.24560000
H      -48.64260000     -34.69380000     -73.12380000
H      -46.72590000     -36.51750000     -69.82740000
H      -49.04240000     -32.91440000     -69.30650000
H      -49.58380000     -32.95710000     -71.75880000
C      -47.38710000     -34.59470000     -67.89250000
H      -47.69690000     -35.53790000     -67.28550000
H      -47.89430000     -33.70110000     -67.48300000
C      -46.99800000     -36.88410000     -72.43230000
H      -47.36900000     -37.81930000     -72.08610000
H      -47.40630000     -36.71890000     -73.42180000
S      -45.58240000     -34.41870000     -67.56020000
S      -45.11580000     -36.68280000     -72.40940000
C      -45.27430000     -32.91770000     -68.61810000
H      -46.21400000     -32.41240000     -68.82350000
H      -44.68070000     -32.30400000     -67.95070000
C      -44.97240000     -34.99160000     -73.20160000
H      -45.88240000     -34.45420000     -72.79280000
H      -45.02810000     -35.06120000     -74.32670000
C      -43.63310000     -34.43810000     -72.93540000
H      -43.14500000     -34.67120000     -71.94640000
H      -42.88030000     -34.89490000     -73.62950000
C      -44.32850000     -33.18410000     -69.82530000
H      -44.66680000     -34.00430000     -70.44900000
H      -43.49260000     -33.47430000     -69.22710000
C      -43.99030000     -31.98810000     -70.69830000
C      -44.02650000     -30.69660000     -70.21110000
C      -43.81850000     -31.95000000     -72.11810000
H      -44.04070000     -30.46110000     -69.12000000
C      -43.60800000     -30.67790000     -72.65430000
C      -43.59730000     -32.93110000     -73.14240000
C      -43.37490000     -32.40450000     -74.39270000
S      -43.72700000     -29.38940000     -71.44350000
S      -43.25910000     -30.64060000     -74.30950000
H      -43.51330000     -32.86880000     -75.42260000
