40
Properties=species:S:1:pos:R:3 #=T CELL(abcABC):=T 1.889726e+02=T 90.00000=T Traj:=T positionsangstrom=T Step:=T 0=T Bead:=T pbc="F F F"
C      -47.94370000     -34.41430000     -72.30960000
C      -47.22770000     -35.57400000     -71.86850000
C      -47.00600000     -35.78700000     -70.49870000
C      -47.67020000     -34.99060000     -69.55320000
C      -48.43050000     -33.85590000     -69.95520000
C      -48.54380000     -33.59350000     -71.38240000
H      -48.00670000     -34.24830000     -73.42380000
H      -46.34220000     -36.65280000     -70.16100000
H      -49.04340000     -33.31090000     -69.24360000
H      -49.08120000     -32.66590000     -71.76890000
C      -47.49750000     -35.29420000     -68.12690000
H      -47.35180000     -36.39180000     -67.95740000
H      -48.24210000     -34.90180000     -67.46100000
C      -46.88660000     -36.55270000     -72.96590000
H      -47.10140000     -37.58690000     -72.53690000
H      -47.50710000     -36.35140000     -73.84860000
S      -45.78990000     -34.72400000     -67.63090000
S      -45.07710000     -36.63350000     -73.34870000
C      -45.47170000     -33.07290000     -68.40990000
H      -46.49160000     -32.59580000     -68.47810000
H      -44.93540000     -32.52840000     -67.65660000
C      -44.73870000     -34.80280000     -73.67220000
H      -45.70100000     -34.29590000     -73.45750000
H      -44.48930000     -34.61020000     -74.70840000
C      -43.68290000     -34.33330000     -72.64220000
H      -44.06480000     -34.59990000     -71.63040000
H      -42.72970000     -34.76190000     -72.86200000
C      -44.74510000     -33.22010000     -69.74210000
H      -45.38210000     -33.87500000     -70.31900000
H      -43.78930000     -33.73100000     -69.64930000
C      -44.56050000     -31.90210000     -70.44560000
C      -44.84370000     -30.67170000     -69.94330000
C      -43.91840000     -31.83780000     -71.77450000
H      -45.48800000     -30.51430000     -69.08380000
C      -43.59920000     -30.58650000     -72.21440000
C      -43.57770000     -32.82570000     -72.81170000
C      -42.99070000     -32.25170000     -73.91590000
S      -44.18750000     -29.41140000     -71.02240000
S      -42.84670000     -30.51340000     -73.75670000
H      -42.62840000     -32.68340000     -74.92280000
