40
Properties=species:S:1:pos:R:3 #=T CELL(abcABC):=T 1.889726e+02=T 90.00000=T Traj:=T positionsangstrom=T Step:=T 0=T Bead:=T pbc="F F F"
C      -48.92090000     -35.19280000     -71.69150000
C      -47.82050000     -35.92270000     -71.26250000
C      -47.29400000     -35.62630000     -69.98480000
C      -47.76340000     -34.55850000     -69.26280000
C      -48.76030000     -33.73860000     -69.78840000
C      -49.36700000     -34.09360000     -70.97080000
H      -49.30620000     -35.37220000     -72.69300000
H      -46.51380000     -36.21320000     -69.50700000
H      -49.01260000     -32.77460000     -69.27980000
H      -50.08830000     -33.42460000     -71.50050000
C      -47.31690000     -34.28300000     -67.85740000
H      -47.48660000     -35.25430000     -67.33350000
H      -47.77320000     -33.37160000     -67.45680000
C      -47.16130000     -37.05680000     -72.07040000
H      -47.30720000     -37.99130000     -71.58840000
H      -47.70180000     -37.19020000     -73.01830000
S      -45.53110000     -34.11490000     -67.62950000
S      -45.36240000     -36.75490000     -72.40550000
C      -45.00400000     -32.67880000     -68.59310000
H      -45.76030000     -31.82860000     -68.54250000
H      -44.10120000     -32.32630000     -68.06120000
C      -45.28180000     -34.99080000     -72.99600000
H      -45.81840000     -34.38640000     -72.27620000
H      -45.75100000     -34.89150000     -73.96210000
C      -43.77590000     -34.48840000     -72.91460000
H      -43.52820000     -34.66930000     -71.85100000
H      -43.16010000     -35.11960000     -73.51230000
C      -44.57400000     -33.01450000     -70.02720000
H      -45.42770000     -33.47490000     -70.52730000
H      -43.79440000     -33.79980000     -69.93750000
C      -44.07120000     -31.83460000     -70.87560000
C      -43.99920000     -30.52880000     -70.36980000
C      -43.77810000     -31.91530000     -72.29830000
H      -44.40780000     -30.10890000     -69.46640000
C      -43.34720000     -30.69750000     -72.79900000
C      -43.65980000     -32.97940000     -73.25100000
C      -43.18360000     -32.50680000     -74.44480000
S      -43.47470000     -29.41900000     -71.62160000
S      -42.83280000     -30.82320000     -74.49860000
H      -42.92020000     -33.08230000     -75.26950000
