40
Properties=species:S:1:pos:R:3 #=T CELL(abcABC):=T 1.889726e+02=T 90.00000=T Traj:=T positionsangstrom=T Step:=T 0=T Bead:=T pbc="F F F"
C      -46.92980000     -30.95090000     -67.92900000
C      -47.27390000     -32.19050000     -68.45540000
C      -47.73550000     -32.23040000     -69.75630000
C      -47.56260000     -31.09400000     -70.63410000
C      -46.99850000     -29.88810000     -70.14780000
C      -46.81200000     -29.83660000     -68.76290000
H      -46.72940000     -30.75000000     -66.88630000
H      -47.87190000     -33.30120000     -70.15540000
H      -46.81490000     -29.01770000     -70.72560000
H      -46.33060000     -28.91430000     -68.40750000
C      -48.09670000     -31.24420000     -72.07060000
H      -48.21350000     -30.30450000     -72.56010000
H      -49.11410000     -31.59750000     -72.10740000
C      -47.19570000     -33.41960000     -67.55820000
H      -46.64440000     -33.21740000     -66.61170000
H      -48.22030000     -33.69880000     -67.23530000
S      -47.12600000     -32.48940000     -73.06590000
S      -46.39570000     -34.92720000     -68.23720000
C      -45.78220000     -31.37740000     -73.66810000
H      -45.66240000     -31.35620000     -74.73360000
H      -46.06980000     -30.36500000     -73.36590000
C      -44.68410000     -34.14670000     -68.68510000
H      -43.98370000     -34.90130000     -68.51590000
H      -44.59960000     -33.32830000     -68.07300000
C      -44.66120000     -33.68580000     -70.13770000
H      -45.61250000     -33.26600000     -70.50240000
H      -44.01600000     -32.76400000     -70.13810000
C      -44.47530000     -31.68510000     -72.96670000
H      -44.64630000     -31.43320000     -71.95030000
H      -43.76500000     -30.92510000     -73.36630000
C      -43.90110000     -33.02650000     -73.35880000
C      -43.32920000     -33.26950000     -74.56670000
C      -43.79430000     -34.20090000     -72.44310000
H      -43.27000000     -32.45380000     -75.25950000
C      -43.26640000     -35.29430000     -73.18630000
C      -44.10990000     -34.65320000     -71.07990000
C      -43.75000000     -35.92630000     -70.88560000
S      -42.59670000     -34.86670000     -74.71920000
S      -42.98420000     -36.73310000     -72.23100000
H      -44.04840000     -36.55610000     -69.99840000
