40
Properties=species:S:1:pos:R:3 #=T CELL(abcABC):=T 1.889726e+02=T 90.00000=T Traj:=T positionsangstrom=T Step:=T 0=T Bead:=T pbc="F F F"
C      -48.78930000     -34.61590000     -71.42940000
C      -47.96730000     -35.55540000     -70.83650000
C      -47.38850000     -35.35020000     -69.60110000
C      -47.60650000     -34.21140000     -68.86850000
C      -48.38460000     -33.18250000     -69.52410000
C      -48.90910000     -33.35110000     -70.77280000
H      -49.29900000     -34.72800000     -72.35160000
H      -46.87800000     -36.22880000     -69.15280000
H      -48.57570000     -32.36510000     -68.87120000
H      -49.58980000     -32.70540000     -71.22020000
C      -47.05310000     -34.00440000     -67.47990000
H      -47.27440000     -34.80880000     -66.71180000
H      -47.54420000     -33.10430000     -67.03410000
C      -47.69930000     -36.83930000     -71.69550000
H      -47.73890000     -37.70710000     -71.05860000
H      -48.45320000     -36.94960000     -72.46080000
S      -45.20030000     -33.83710000     -67.46030000
S      -45.88760000     -36.83780000     -72.19870000
C      -44.99930000     -32.44770000     -68.69700000
H      -46.03480000     -32.00890000     -68.72790000
H      -44.17250000     -31.71890000     -68.36400000
C      -45.56410000     -35.12190000     -72.80960000
H      -45.97310000     -34.37280000     -72.15990000
H      -46.10770000     -34.99240000     -73.74240000
C      -44.05980000     -34.82060000     -73.03290000
H      -43.61920000     -35.13310000     -72.04470000
H      -43.66110000     -35.54910000     -73.71350000
C      -44.70320000     -32.89180000     -70.08520000
H      -45.57240000     -33.31990000     -70.54040000
H      -44.00090000     -33.74020000     -70.16070000
C      -44.18190000     -31.86800000     -71.09330000
C      -43.97990000     -30.53860000     -70.82810000
C      -43.72380000     -32.26210000     -72.46000000
H      -44.10380000     -30.13900000     -69.83290000
C      -43.25330000     -31.15420000     -73.15210000
C      -43.67330000     -33.42650000     -73.42130000
C      -43.13110000     -33.05320000     -74.60350000
S      -43.42600000     -29.67250000     -72.24340000
S      -42.63350000     -31.35510000     -74.72200000
H      -43.10120000     -33.75930000     -75.42610000
