40
Properties=species:S:1:pos:R:3 #=T CELL(abcABC):=T 1.889726e+02=T 90.00000=T Traj:=T positionsangstrom=T Step:=T 0=T Bead:=T pbc="F F F"
C      -48.74950000     -33.84950000     -71.37380000
C      -48.10210000     -34.95940000     -70.88250000
C      -47.50270000     -34.84810000     -69.64870000
C      -47.57810000     -33.69560000     -68.89020000
C      -48.35910000     -32.62980000     -69.34300000
C      -48.88460000     -32.66930000     -70.59100000
H      -49.09820000     -33.85000000     -72.44880000
H      -46.92290000     -35.65340000     -69.20430000
H      -48.48030000     -31.85500000     -68.67150000
H      -49.37260000     -31.83200000     -71.13600000
C      -46.91570000     -33.63570000     -67.50100000
H      -47.42560000     -34.38500000     -66.85480000
H      -47.01720000     -32.60280000     -67.15850000
C      -47.94910000     -36.10650000     -71.81350000
H      -48.40330000     -37.03930000     -71.57780000
H      -48.24660000     -35.86250000     -72.89410000
S      -45.02170000     -34.11530000     -67.39990000
S      -46.14560000     -36.58340000     -72.05510000
C      -44.47780000     -32.88310000     -68.65380000
H      -45.31510000     -32.19950000     -68.61200000
H      -43.62240000     -32.40110000     -68.27430000
C      -45.47320000     -35.13990000     -72.86520000
H      -45.96090000     -34.20240000     -72.42050000
H      -45.73570000     -35.16350000     -73.95830000
C      -43.98850000     -35.04830000     -72.72750000
H      -43.59640000     -35.18920000     -71.68070000
H      -43.51330000     -35.82870000     -73.25750000
C      -44.32190000     -33.33450000     -70.10850000
H      -45.14740000     -33.96320000     -70.28670000
H      -43.53780000     -34.05270000     -70.23160000
C      -44.10480000     -32.24470000     -71.19890000
C      -44.32020000     -30.90300000     -71.01700000
C      -43.60800000     -32.49140000     -72.55660000
H      -44.78460000     -30.49010000     -70.12150000
C      -43.24740000     -31.37010000     -73.27170000
C      -43.48100000     -33.72170000     -73.29080000
C      -43.07960000     -33.50300000     -74.61350000
S      -43.71820000     -29.91140000     -72.34630000
S      -42.69180000     -31.79060000     -74.82340000
H      -42.85540000     -34.33570000     -75.29400000
