40
Properties=species:S:1:pos:R:3 #=T CELL(abcABC):=T 1.889726e+02=T 90.00000=T Traj:=T positionsangstrom=T Step:=T 0=T Bead:=T pbc="F F F"
C      -42.54770000     -31.48550000     -73.76820000
C      -42.32360000     -32.19060000     -72.58670000
C      -42.79860000     -31.62990000     -71.37960000
C      -43.55420000     -30.39590000     -71.33160000
C      -43.79590000     -29.81100000     -72.55260000
C      -43.29480000     -30.31330000     -73.77880000
H      -42.26490000     -31.94770000     -74.71820000
H      -42.51620000     -32.12170000     -70.48040000
H      -44.45400000     -28.91850000     -72.66140000
H      -43.53810000     -29.74480000     -74.62960000
C      -44.00570000     -29.91370000     -69.99510000
H      -43.73480000     -28.84630000     -69.83910000
H      -43.62040000     -30.62530000     -69.20840000
C      -41.60480000     -33.53290000     -72.63630000
H      -40.64640000     -33.41050000     -73.05200000
H      -41.56000000     -33.89180000     -71.59540000
S      -45.88710000     -29.73200000     -69.88010000
S      -42.44970000     -34.83970000     -73.62370000
C      -46.37790000     -31.56190000     -69.74660000
H      -45.64980000     -32.13910000     -69.25140000
H      -47.31210000     -31.61970000     -69.26280000
C      -44.15160000     -34.62390000     -72.90870000
H      -44.91630000     -35.25810000     -73.49040000
H      -44.53430000     -33.64330000     -73.02930000
C      -44.21290000     -35.02410000     -71.35860000
H      -43.42450000     -35.69140000     -71.16540000
H      -44.03560000     -34.13950000     -70.70950000
C      -46.52760000     -32.28490000     -71.12260000
H      -45.52730000     -32.52770000     -71.49150000
H      -47.10170000     -31.75390000     -71.86290000
C      -47.27220000     -33.57180000     -70.81490000
C      -48.63320000     -33.42570000     -70.53080000
C      -46.80250000     -34.90770000     -70.66860000
H      -49.22330000     -32.48860000     -70.58540000
C      -47.82620000     -35.75670000     -70.25370000
C      -45.49090000     -35.62460000     -70.86560000
C      -45.63710000     -37.01690000     -70.67410000
S      -49.36880000     -34.91890000     -70.08700000
S      -47.29050000     -37.40750000     -70.11870000
H      -44.94430000     -37.77710000     -70.84350000
