40
Properties=species:S:1:pos:R:3 #=T CELL(abcABC):=T 1.889726e+02=T 90.00000=T Traj:=T positionsangstrom=T Step:=T 0=T Bead:=T pbc="F F F"
C      -46.87790000     -36.46490000     -71.91840000
C      -47.33110000     -35.91600000     -70.69100000
C      -46.53390000     -35.86790000     -69.56960000
C      -45.21060000     -36.28760000     -69.69950000
C      -44.72610000     -36.86520000     -70.89460000
C      -45.58190000     -36.98160000     -71.98090000
H      -47.54690000     -36.39590000     -72.73910000
H      -46.82160000     -35.27180000     -68.75370000
H      -43.69990000     -37.30050000     -70.99870000
H      -45.18210000     -37.37740000     -72.91110000
C      -44.26440000     -36.17670000     -68.45380000
H      -43.31740000     -36.65100000     -68.65640000
H      -44.72420000     -36.66820000     -67.58370000
C      -48.72500000     -35.31750000     -70.69080000
H      -49.26030000     -35.49430000     -71.65910000
H      -49.42020000     -35.79920000     -69.92490000
S      -43.89230000     -34.44200000     -67.83500000
S      -48.84120000     -33.43450000     -70.38840000
C      -43.15610000     -33.67780000     -69.35510000
H      -42.37000000     -32.98570000     -69.01060000
H      -42.71290000     -34.46580000     -70.01670000
C      -47.59710000     -32.84900000     -71.58900000
H      -48.06600000     -32.94990000     -72.55310000
H      -46.75850000     -33.56190000     -71.45600000
C      -47.11320000     -31.40400000     -71.26400000
H      -47.95810000     -30.69870000     -71.24290000
H      -46.68890000     -31.46860000     -70.23990000
C      -44.26450000     -33.07500000     -70.29030000
H      -44.85480000     -32.40630000     -69.65380000
H      -44.90870000     -33.85140000     -70.50460000
C      -43.80320000     -32.34340000     -71.49000000
C      -42.50460000     -32.48500000     -71.94700000
C      -44.66370000     -31.57080000     -72.35500000
H      -41.70590000     -32.98720000     -71.42770000
C      -43.91570000     -31.15730000     -73.44960000
C      -46.01010000     -31.02620000     -72.31690000
C      -46.28670000     -30.24830000     -73.48130000
S      -42.23710000     -31.64190000     -73.46470000
S      -44.88250000     -30.21770000     -74.55880000
H      -47.10280000     -29.73630000     -73.78690000
