40
Properties=species:S:1:pos:R:3 #=T CELL(abcABC):=T 1.889726e+02=T 90.00000=T Traj:=T positionsangstrom=T Step:=T 0=T Bead:=T pbc="F F F"
C      -48.58480000     -33.43560000     -71.42870000
C      -48.38310000     -34.70210000     -70.84860000
C      -47.79790000     -34.76370000     -69.55320000
C      -47.59590000     -33.62270000     -68.78900000
C      -47.85070000     -32.34010000     -69.37830000
C      -48.31950000     -32.27940000     -70.68340000
H      -48.96700000     -33.34640000     -72.45530000
H      -47.48020000     -35.64030000     -68.94770000
H      -47.58520000     -31.40950000     -68.81950000
H      -48.65990000     -31.36570000     -71.04450000
C      -46.99470000     -33.61030000     -67.37870000
H      -47.44430000     -34.32430000     -66.74230000
H      -47.11780000     -32.58260000     -66.91460000
C      -48.54620000     -35.87200000     -71.73000000
H      -49.03030000     -36.78520000     -71.23950000
H      -49.06420000     -35.71970000     -72.62020000
S      -45.12470000     -33.91780000     -67.46220000
S      -46.92740000     -36.60670000     -72.30720000
C      -44.26940000     -32.62420000     -68.58910000
H      -44.80920000     -31.68760000     -68.43110000
H      -43.24910000     -32.54700000     -68.28160000
C      -46.11430000     -35.07700000     -72.96220000
H      -46.46220000     -34.22580000     -72.36210000
H      -46.25900000     -35.01690000     -74.05440000
C      -44.57950000     -35.13560000     -72.87050000
H      -44.18690000     -35.32050000     -71.91400000
H      -44.32110000     -35.95110000     -73.61630000
C      -44.38790000     -33.18310000     -70.00770000
H      -45.36650000     -33.55730000     -70.27280000
H      -43.80720000     -34.09890000     -70.00540000
C      -43.75680000     -32.28360000     -71.07990000
C      -43.23180000     -31.05250000     -70.82060000
C      -43.60510000     -32.67580000     -72.43870000
H      -43.29870000     -30.53730000     -69.81770000
C      -43.03360000     -31.67900000     -73.21650000
C      -43.85690000     -33.83480000     -73.27680000
C      -43.43960000     -33.71350000     -74.62290000
S      -42.65750000     -30.25490000     -72.27400000
S      -42.74010000     -32.12620000     -74.86820000
H      -43.55510000     -34.41710000     -75.42860000
