40
Properties=species:S:1:pos:R:3 #=T CELL(abcABC):=T 1.889726e+02=T 90.00000=T Traj:=T positionsangstrom=T Step:=T 0=T Bead:=T pbc="F F F"
C      -43.09450000     -31.28310000     -74.14880000
C      -42.82010000     -32.15490000     -73.09650000
C      -42.84620000     -31.73630000     -71.72630000
C      -43.31360000     -30.45010000     -71.42780000
C      -43.62250000     -29.57700000     -72.45980000
C      -43.46190000     -29.97600000     -73.81080000
H      -43.01990000     -31.68990000     -75.19810000
H      -42.57100000     -32.40110000     -70.94900000
H      -44.06270000     -28.66960000     -72.12090000
H      -43.61680000     -29.27230000     -74.59860000
C      -43.32870000     -29.93010000     -70.03370000
H      -43.05370000     -28.87190000     -69.91990000
H      -42.51610000     -30.44740000     -69.42890000
C      -42.24510000     -33.51750000     -73.32740000
H      -41.27080000     -33.36810000     -73.85820000
H      -41.98780000     -33.97040000     -72.31250000
S      -45.02730000     -29.97430000     -69.20760000
S      -43.25470000     -34.68500000     -74.43390000
C      -45.30900000     -31.87440000     -69.08650000
H      -44.37210000     -32.43270000     -68.98900000
H      -45.90330000     -32.06950000     -68.14460000
C      -44.78850000     -34.66310000     -73.43820000
H      -45.40240000     -35.43210000     -73.92610000
H      -45.27560000     -33.72250000     -73.53610000
C      -44.60130000     -35.01310000     -71.96870000
H      -43.84290000     -35.78210000     -71.82310000
H      -44.29290000     -34.16280000     -71.29140000
C      -46.12840000     -32.25600000     -70.33110000
H      -45.46190000     -32.34180000     -71.16980000
H      -46.85610000     -31.45670000     -70.65350000
C      -46.98420000     -33.55930000     -70.09740000
C      -48.14220000     -33.43560000     -69.30430000
C      -46.74170000     -34.90260000     -70.52910000
H      -48.73490000     -32.62830000     -68.98840000
C      -47.82040000     -35.75190000     -70.19320000
C      -45.82210000     -35.64890000     -71.37480000
C      -46.12830000     -36.96310000     -71.49020000
S      -48.90260000     -34.99040000     -69.01320000
S      -47.71620000     -37.39230000     -70.69450000
H      -45.72810000     -37.75700000     -72.03800000
