40
Properties=species:S:1:pos:R:3 #=T CELL(abcABC):=T 1.889726e+02=T 90.00000=T Traj:=T positionsangstrom=T Step:=T 0=T Bead:=T pbc="F F F"
C      -49.13850000     -33.32220000     -71.23580000
C      -48.52400000     -34.44340000     -70.68460000
C      -47.81370000     -34.32370000     -69.49470000
C      -47.68540000     -33.09550000     -68.89940000
C      -48.31490000     -31.95100000     -69.43280000
C      -48.99230000     -32.08310000     -70.61350000
H      -49.77500000     -33.46370000     -72.21040000
H      -47.46360000     -35.25980000     -68.91230000
H      -48.17420000     -30.97650000     -68.95690000
H      -49.49300000     -31.21460000     -70.99530000
C      -46.81690000     -33.02080000     -67.60180000
H      -47.45490000     -33.40300000     -66.79140000
H      -46.69670000     -31.89330000     -67.43050000
C      -48.58640000     -35.84480000     -71.18870000
H      -48.94060000     -36.55020000     -70.35700000
H      -49.13770000     -36.09460000     -72.07880000
S      -45.33980000     -33.96690000     -67.64880000
S      -46.86420000     -36.38670000     -71.54340000
C      -44.24950000     -32.82850000     -68.84800000
H      -44.92630000     -32.00650000     -69.03450000
H      -43.36020000     -32.52980000     -68.29610000
C      -46.21550000     -34.98190000     -72.70940000
H      -46.45260000     -33.95390000     -72.45050000
H      -46.66310000     -35.12280000     -73.69360000
C      -44.66310000     -35.12330000     -72.80450000
H      -44.34610000     -35.38770000     -71.78750000
H      -44.36860000     -36.00570000     -73.44970000
C      -43.83020000     -33.54680000     -70.14290000
H      -44.69570000     -34.04140000     -70.55300000
H      -43.07510000     -34.29370000     -69.91900000
C      -43.20830000     -32.64520000     -71.19340000
C      -42.49900000     -31.50760000     -70.96980000
C      -43.44650000     -32.87690000     -72.61020000
H      -42.26240000     -31.01500000     -69.99340000
C      -42.78210000     -31.94520000     -73.43360000
C      -44.10600000     -33.85810000     -73.42830000
C      -44.02170000     -33.59980000     -74.77340000
S      -41.99340000     -30.67770000     -72.46080000
S      -43.01420000     -32.24060000     -75.12940000
H      -44.44170000     -34.23870000     -75.52330000
