40
Properties=species:S:1:pos:R:3 #=T CELL(abcABC):=T 1.889726e+02=T 90.00000=T Traj:=T positionsangstrom=T Step:=T 0=T Bead:=T pbc="F F F"
C      -42.66440000     -31.43520000     -73.99750000
C      -42.24320000     -32.15190000     -72.87040000
C      -42.51970000     -31.57440000     -71.64620000
C      -43.19700000     -30.36790000     -71.42950000
C      -43.59200000     -29.63490000     -72.59700000
C      -43.31410000     -30.15330000     -73.84900000
H      -42.44200000     -31.94810000     -74.93590000
H      -42.14530000     -32.09990000     -70.74880000
H      -44.09110000     -28.65770000     -72.56070000
H      -43.58020000     -29.49680000     -74.73730000
C      -43.67270000     -29.89240000     -70.10610000
H      -43.35420000     -28.77730000     -70.03530000
H      -43.18950000     -30.40680000     -69.24460000
C      -41.68200000     -33.56500000     -72.99250000
H      -40.75770000     -33.47080000     -73.61320000
H      -41.33930000     -33.93150000     -72.01780000
S      -45.49350000     -29.77950000     -69.68570000
S      -42.92510000     -34.76250000     -73.76160000
C      -46.21570000     -31.46360000     -69.28180000
H      -45.52250000     -31.89030000     -68.61880000
H      -47.09150000     -31.19620000     -68.71980000
C      -44.45140000     -34.54680000     -72.77160000
H      -45.03050000     -35.29450000     -73.30740000
H      -44.88480000     -33.54670000     -73.01120000
C      -44.33530000     -34.87440000     -71.28150000
H      -43.48660000     -35.60670000     -71.19810000
H      -44.13700000     -34.07840000     -70.64140000
C      -46.57460000     -32.29760000     -70.55570000
H      -45.63770000     -32.56230000     -70.98470000
H      -47.18350000     -31.61970000     -71.12850000
C      -47.27000000     -33.58940000     -70.27870000
C      -48.64520000     -33.58250000     -69.83360000
C      -46.82120000     -34.94290000     -70.50200000
H      -49.26310000     -32.69780000     -69.62100000
C      -47.85200000     -35.84730000     -70.35030000
C      -45.59560000     -35.56070000     -70.84700000
C      -45.74560000     -36.92110000     -70.97030000
S      -49.37510000     -35.19720000     -69.92300000
S      -47.40580000     -37.45980000     -70.69520000
H      -44.94200000     -37.67600000     -71.09460000
