40
Properties=species:S:1:pos:R:3 #=T CELL(abcABC):=T 1.889726e+02=T 90.00000=T Traj:=T positionsangstrom=T Step:=T 0=T Bead:=T pbc="F F F"
C      -49.24750000     -33.25310000     -71.04560000
C      -48.44420000     -34.35490000     -70.58380000
C      -47.63590000     -34.18140000     -69.38760000
C      -47.56820000     -32.96290000     -68.70230000
C      -48.28070000     -31.94250000     -69.23440000
C      -49.12650000     -32.04020000     -70.33900000
H      -49.98300000     -33.47090000     -71.71150000
H      -47.03370000     -35.02630000     -69.11670000
H      -48.15300000     -30.98730000     -68.75820000
H      -49.72470000     -31.21730000     -70.66590000
C      -46.72720000     -32.73880000     -67.50370000
H      -47.37210000     -33.08400000     -66.73220000
H      -46.39360000     -31.66660000     -67.43890000
C      -48.58790000     -35.67130000     -71.16370000
H      -48.70580000     -36.46040000     -70.40580000
H      -49.39040000     -35.66360000     -71.80960000
S      -45.14750000     -33.66690000     -67.44120000
S      -47.14780000     -36.36610000     -72.15190000
C      -44.26470000     -32.80050000     -68.79760000
H      -44.84130000     -31.90620000     -69.03280000
H      -43.33610000     -32.41860000     -68.32890000
C      -46.21210000     -34.92890000     -72.66860000
H      -46.17220000     -34.19790000     -71.78650000
H      -46.78610000     -34.37130000     -73.47840000
C      -44.83530000     -35.26010000     -73.23490000
H      -44.20850000     -35.78310000     -72.43860000
H      -44.90360000     -35.91520000     -74.08370000
C      -43.95190000     -33.67490000     -70.10390000
H      -44.88870000     -34.08820000     -70.37470000
H      -43.28320000     -34.48910000     -69.87850000
C      -43.41090000     -32.77540000     -71.21700000
C      -42.72090000     -31.61650000     -70.93470000
C      -43.45290000     -33.02040000     -72.66350000
H      -42.70540000     -31.11840000     -69.98880000
C      -42.73550000     -32.06010000     -73.35750000
C      -44.05030000     -34.05000000     -73.59700000
C      -43.81580000     -33.77630000     -74.90020000
S      -42.01440000     -30.88930000     -72.36410000
S      -42.82210000     -32.35060000     -75.08100000
H      -44.31180000     -34.24010000     -75.76710000
