40
Properties=species:S:1:pos:R:3 #=T CELL(abcABC):=T 1.889726e+02=T 90.00000=T Traj:=T positionsangstrom=T Step:=T 0=T Bead:=T pbc="F F F"
C      -43.15930000     -31.38900000     -74.21040000
C      -42.78990000     -32.18390000     -73.10500000
C      -42.90100000     -31.72010000     -71.78640000
C      -43.32530000     -30.42070000     -71.54050000
C      -43.82450000     -29.63320000     -72.69390000
C      -43.71180000     -30.09540000     -74.01520000
H      -42.95230000     -31.79380000     -75.18680000
H      -42.54240000     -32.29230000     -70.92890000
H      -44.27970000     -28.66110000     -72.41280000
H      -43.97950000     -29.50030000     -74.84960000
C      -43.26810000     -29.80230000     -70.18650000
H      -43.07840000     -28.76460000     -70.20550000
H      -42.30050000     -30.25290000     -69.79320000
C      -42.20790000     -33.51660000     -73.37210000
H      -41.28350000     -33.63450000     -73.81540000
H      -42.14980000     -34.04400000     -72.42140000
S      -44.67890000     -30.10320000     -69.02620000
S      -43.37260000     -34.46420000     -74.44120000
C      -45.27700000     -31.79910000     -69.24290000
H      -44.48940000     -32.46970000     -69.21530000
H      -45.80430000     -32.01040000     -68.26410000
C      -44.91540000     -34.76610000     -73.45570000
H      -45.58070000     -35.56300000     -73.88570000
H      -45.62540000     -33.89080000     -73.55120000
C      -44.55580000     -35.08710000     -71.97610000
H      -43.73710000     -35.79250000     -71.75000000
H      -44.35730000     -34.04130000     -71.62560000
C      -46.17240000     -32.31630000     -70.38140000
H      -45.51150000     -32.39480000     -71.22960000
H      -46.85810000     -31.54610000     -70.70220000
C      -46.98870000     -33.55540000     -69.95350000
C      -48.05290000     -33.46410000     -69.06630000
C      -46.81740000     -34.90230000     -70.48920000
H      -48.22360000     -32.60890000     -68.47910000
C      -47.82300000     -35.77920000     -70.04970000
C      -45.76810000     -35.57790000     -71.28790000
C      -46.16030000     -36.88540000     -71.44660000
S      -48.98350000     -35.00980000     -68.98470000
S      -47.65370000     -37.37880000     -70.69380000
H      -45.76560000     -37.55230000     -72.15810000
