40
Properties=species:S:1:pos:R:3 #=T CELL(abcABC):=T 1.889726e+02=T 90.00000=T Traj:=T positionsangstrom=T Step:=T 0=T Bead:=T pbc="F F F"
C      -45.71310000     -36.99180000     -70.11630000
C      -46.02330000     -36.00670000     -69.18110000
C      -47.12970000     -35.22590000     -69.45140000
C      -48.07020000     -35.46810000     -70.50770000
C      -47.85620000     -36.61110000     -71.30800000
C      -46.69960000     -37.31860000     -71.05850000
H      -44.73290000     -37.40560000     -70.05640000
H      -47.49770000     -34.46430000     -68.71760000
H      -48.50170000     -36.97490000     -72.07870000
H      -46.51390000     -38.11100000     -71.77150000
C      -49.27100000     -34.56800000     -70.73410000
H      -49.83680000     -34.49500000     -69.80250000
H      -49.89930000     -34.99570000     -71.54070000
C      -45.07690000     -35.59410000     -68.11300000
H      -45.33570000     -35.94390000     -67.16090000
H      -44.06760000     -35.91530000     -68.24330000
S      -48.88510000     -32.77860000     -71.21550000
S      -45.03230000     -33.74000000     -67.84740000
C      -47.19440000     -32.87830000     -72.14770000
H      -46.59030000     -33.70360000     -71.84540000
H      -47.35940000     -33.06650000     -73.24300000
C      -43.89240000     -33.16980000     -69.19210000
H      -42.86330000     -33.35970000     -68.96360000
H      -44.01620000     -32.07460000     -69.23660000
C      -44.18310000     -33.82070000     -70.54120000
H      -43.93370000     -34.86000000     -70.45880000
H      -45.23180000     -33.65670000     -70.77280000
C      -46.52320000     -31.54440000     -71.84020000
H      -46.35510000     -31.49230000     -70.71320000
H      -47.21450000     -30.71530000     -72.03130000
C      -45.19100000     -31.32370000     -72.58350000
C      -45.11680000     -30.33640000     -73.57500000
C      -43.92830000     -32.01080000     -72.44980000
H      -45.90330000     -29.63950000     -73.74980000
C      -43.04230000     -31.63420000     -73.43670000
C      -43.40640000     -33.11060000     -71.62780000
C      -42.12700000     -33.43270000     -72.00940000
S      -43.59790000     -30.32880000     -74.45210000
S      -41.50120000     -32.42410000     -73.35500000
H      -41.46650000     -34.11670000     -71.53540000
