40
Properties=species:S:1:pos:R:3 #=T CELL(abcABC):=T 1.889726e+02=T 90.00000=T Traj:=T positionsangstrom=T Step:=T 0=T Bead:=T pbc="F F F"
C      -48.90910000     -32.56960000     -70.37640000
C      -48.48380000     -33.84560000     -70.11630000
C      -47.73360000     -34.10270000     -68.98010000
C      -47.22250000     -33.06170000     -68.21980000
C      -47.53860000     -31.70880000     -68.55230000
C      -48.41670000     -31.51700000     -69.62260000
H      -49.50260000     -32.33540000     -71.19440000
H      -47.53300000     -35.17110000     -68.71620000
H      -47.07730000     -30.95760000     -68.00750000
H      -48.74490000     -30.44870000     -69.84040000
C      -46.16990000     -33.20260000     -67.16130000
H      -46.53280000     -33.78010000     -66.24220000
H      -45.93520000     -32.16630000     -66.90020000
C      -48.85720000     -34.99340000     -71.05810000
H      -49.65500000     -35.62910000     -70.60660000
H      -49.45100000     -34.60670000     -71.95390000
S      -44.67600000     -34.02800000     -67.67060000
S      -47.50010000     -36.11210000     -71.52480000
C      -43.95450000     -32.78340000     -68.96170000
H      -44.43510000     -31.80800000     -68.95840000
H      -42.93170000     -32.72200000     -68.75730000
C      -46.48800000     -35.02360000     -72.59850000
H      -46.54460000     -34.04560000     -72.05920000
H      -46.99890000     -34.96060000     -73.60580000
C      -44.93430000     -35.44790000     -72.78840000
H      -44.49590000     -35.54990000     -71.77350000
H      -44.96420000     -36.31290000     -73.48700000
C      -44.06660000     -33.31120000     -70.35270000
H      -45.21440000     -33.37190000     -70.52200000
H      -43.66900000     -34.35900000     -70.35670000
C      -43.52420000     -32.55350000     -71.65720000
C      -42.86770000     -31.37090000     -71.58730000
C      -43.66840000     -33.13210000     -72.95110000
H      -42.67910000     -30.68710000     -70.79740000
C      -43.08280000     -32.26660000     -73.91220000
C      -44.09860000     -34.33180000     -73.55510000
C      -43.86160000     -34.37780000     -74.91820000
S      -42.35350000     -30.86360000     -73.18180000
S      -43.09970000     -32.89760000     -75.51210000
H      -44.17890000     -35.16920000     -75.55880000
