40
Properties=species:S:1:pos:R:3 #=T CELL(abcABC):=T 1.889726e+02=T 90.00000=T Traj:=T positionsangstrom=T Step:=T 0=T Bead:=T pbc="F F F"
C      -48.92910000     -32.49550000     -70.18950000
C      -48.14230000     -33.67750000     -70.04200000
C      -47.13590000     -33.75530000     -69.06670000
C      -46.84900000     -32.62850000     -68.27570000
C      -47.68510000     -31.49480000     -68.35280000
C      -48.63880000     -31.42500000     -69.35450000
H      -49.71690000     -32.47390000     -70.88430000
H      -46.51520000     -34.65670000     -68.99940000
H      -47.62050000     -30.71590000     -67.62830000
H      -49.28920000     -30.54040000     -69.38130000
C      -45.82360000     -32.82170000     -67.13850000
H      -46.17610000     -33.63240000     -66.45420000
H      -45.72160000     -31.88230000     -66.58070000
C      -48.69420000     -34.90950000     -70.63940000
H      -49.13830000     -35.59850000     -69.82350000
H      -49.43280000     -34.66350000     -71.42950000
S      -44.19750000     -33.43410000     -67.72380000
S      -47.48270000     -36.04010000     -71.28180000
C      -44.01280000     -32.31160000     -69.16320000
H      -44.66540000     -31.39100000     -68.87220000
H      -42.94410000     -32.02320000     -69.26860000
C      -46.60910000     -35.02160000     -72.51410000
H      -46.59700000     -33.97270000     -72.13140000
H      -47.18730000     -35.00390000     -73.42760000
C      -45.21640000     -35.51350000     -72.66820000
H      -44.78510000     -35.64250000     -71.73380000
H      -45.26740000     -36.50750000     -73.15530000
C      -44.48880000     -33.02310000     -70.46450000
H      -45.55960000     -33.07050000     -70.61010000
H      -44.22550000     -33.99860000     -70.36890000
C      -43.87660000     -32.54920000     -71.81140000
C      -43.16600000     -31.37330000     -71.95590000
C      -43.85950000     -33.32900000     -73.07700000
H      -43.06360000     -30.67180000     -71.11430000
C      -43.18160000     -32.71460000     -74.07280000
C      -44.29800000     -34.59760000     -73.43840000
C      -44.06960000     -34.94970000     -74.74110000
S      -42.55750000     -31.16000000     -73.59400000
S      -43.03810000     -33.70130000     -75.51020000
H      -44.37500000     -35.84870000     -75.26670000
