40
Properties=species:S:1:pos:R:3 #=T CELL(abcABC):=T 1.889726e+02=T 90.00000=T Traj:=T positionsangstrom=T Step:=T 0=T Bead:=T pbc="F F F"
C      -44.85390000     -29.56900000     -73.72560000
C      -44.20700000     -30.75300000     -73.37250000
C      -43.72090000     -30.94680000     -72.05460000
C      -43.83970000     -29.89170000     -71.11550000
C      -44.57590000     -28.72270000     -71.47150000
C      -45.03080000     -28.56210000     -72.74930000
H      -45.29810000     -29.38010000     -74.72060000
H      -43.20860000     -31.78870000     -71.64830000
H      -44.76800000     -27.90860000     -70.80280000
H      -45.52050000     -27.62520000     -73.02700000
C      -43.38410000     -30.12770000     -69.65780000
H      -43.04620000     -29.17520000     -69.29750000
H      -42.59660000     -30.86350000     -69.57210000
C      -43.93530000     -31.86640000     -74.38590000
H      -43.53830000     -31.36530000     -75.29880000
H      -43.08860000     -32.48440000     -74.09900000
S      -44.76210000     -30.69670000     -68.56790000
S      -45.44570000     -32.78220000     -75.00480000
C      -44.63440000     -32.50710000     -68.79180000
H      -43.57430000     -32.76530000     -68.79140000
H      -45.04950000     -32.87590000     -67.85940000
C      -46.18920000     -33.66130000     -73.48050000
H      -47.16060000     -33.95200000     -73.79890000
H      -46.36370000     -32.98520000     -72.67550000
C      -45.20720000     -34.72750000     -73.06980000
H      -44.83980000     -35.15480000     -74.00820000
H      -44.36190000     -34.21590000     -72.54450000
C      -45.35870000     -33.12330000     -69.97340000
H      -44.70160000     -33.13430000     -70.82480000
H      -46.26590000     -32.51760000     -70.17670000
C      -45.89980000     -34.60020000     -69.76610000
C      -46.26510000     -35.05240000     -68.54220000
C      -45.90870000     -35.68410000     -70.73830000
H      -46.06150000     -34.42170000     -67.71630000
C      -46.25280000     -36.86600000     -70.15530000
C      -45.73700000     -35.80050000     -72.14070000
C      -46.01100000     -37.06520000     -72.58360000
S      -46.67320000     -36.80710000     -68.46300000
S      -46.36360000     -38.14550000     -71.29060000
H      -45.77690000     -37.37750000     -73.64960000
