40
Properties=species:S:1:pos:R:3 #=T CELL(abcABC):=T 1.889726e+02=T 90.00000=T Traj:=T positionsangstrom=T Step:=T 0=T Bead:=T pbc="F F F"
C      -48.05770000     -31.38180000     -70.00200000
C      -47.86760000     -32.54130000     -69.16490000
C      -46.64960000     -32.52440000     -68.41670000
C      -45.65380000     -31.56200000     -68.56270000
C      -45.98190000     -30.41410000     -69.30530000
C      -47.15770000     -30.31630000     -70.02160000
H      -48.99130000     -31.28410000     -70.54680000
H      -46.47310000     -33.32180000     -67.77130000
H      -45.19720000     -29.72940000     -69.37100000
H      -47.28330000     -29.55900000     -70.82000000
C      -44.40990000     -31.58110000     -67.76470000
H      -44.54970000     -31.70310000     -66.70770000
H      -43.80240000     -30.72600000     -68.01370000
C      -48.80610000     -33.73190000     -69.26420000
H      -49.26880000     -33.96750000     -68.33560000
H      -49.53650000     -33.55490000     -70.01610000
S      -43.33510000     -33.05840000     -68.10950000
S      -47.92720000     -35.32790000     -69.80610000
C      -42.99040000     -32.77980000     -69.93850000
H      -43.44780000     -31.79700000     -70.28250000
H      -41.89370000     -32.56650000     -70.05400000
C      -47.15310000     -34.62050000     -71.27850000
H      -46.77870000     -33.61930000     -71.13660000
H      -47.94020000     -34.61340000     -72.10460000
C      -46.08550000     -35.64280000     -71.84290000
H      -45.20780000     -35.78100000     -71.11320000
H      -46.52490000     -36.60560000     -72.02200000
C      -43.33200000     -33.99460000     -70.81810000
H      -44.29090000     -34.22950000     -70.46400000
H      -42.68940000     -34.81510000     -70.50920000
C      -43.35520000     -33.81470000     -72.29870000
C      -42.44040000     -32.96680000     -72.93690000
C      -44.32220000     -34.24070000     -73.25590000
H      -41.53480000     -32.57220000     -72.57310000
C      -44.11140000     -33.77100000     -74.53890000
C      -45.51940000     -35.02500000     -73.13930000
C      -46.19000000     -35.13150000     -74.32730000
S      -42.69510000     -32.80560000     -74.65860000
S      -45.34690000     -34.29140000     -75.59300000
H      -47.05690000     -35.72880000     -74.51850000
