40
Properties=species:S:1:pos:R:3 #=T CELL(abcABC):=T 1.889726e+02=T 90.00000=T Traj:=T positionsangstrom=T Step:=T 0=T Bead:=T pbc="F F F"
C      -44.96990000     -29.41660000     -73.74980000
C      -44.37850000     -30.67900000     -73.58230000
C      -43.93170000     -31.05890000     -72.32070000
C      -43.96800000     -30.15120000     -71.21820000
C      -44.48670000     -28.88530000     -71.48520000
C      -44.96860000     -28.48710000     -72.73280000
H      -45.45420000     -29.17900000     -74.67960000
H      -43.43180000     -32.02320000     -72.36020000
H      -44.55760000     -28.17370000     -70.69250000
H      -45.49150000     -27.53410000     -72.85840000
C      -43.51840000     -30.56320000     -69.84830000
H      -42.72440000     -29.89080000     -69.44510000
H      -43.11440000     -31.57150000     -69.91610000
C      -44.41940000     -31.77080000     -74.68090000
H      -44.21980000     -31.26740000     -75.62480000
H      -43.53740000     -32.35340000     -74.60840000
S      -44.89160000     -30.56240000     -68.55060000
S      -45.90670000     -32.86970000     -74.91120000
C      -45.42080000     -32.27130000     -68.44320000
H      -45.14930000     -32.61920000     -67.43290000
H      -46.47350000     -32.23940000     -68.60620000
C      -46.08600000     -33.67420000     -73.25570000
H      -46.95380000     -34.33500000     -73.36860000
H      -46.25590000     -32.95670000     -72.48750000
C      -44.81980000     -34.41780000     -72.86840000
H      -44.18010000     -34.80330000     -73.74770000
H      -44.20100000     -33.81850000     -72.24780000
C      -44.91720000     -33.29280000     -69.51210000
H      -43.85300000     -33.46280000     -69.59190000
H      -45.01670000     -32.84680000     -70.54100000
C      -45.53280000     -34.68970000     -69.42020000
C      -46.05450000     -35.31580000     -68.33720000
C      -45.49370000     -35.67180000     -70.57370000
H      -46.19590000     -34.79670000     -67.31350000
C      -46.13160000     -36.90260000     -70.25570000
C      -45.30950000     -35.57950000     -71.99530000
C      -45.54810000     -36.74210000     -72.58630000
S      -46.59500000     -36.93800000     -68.62360000
S      -46.21320000     -38.02030000     -71.62340000
H      -45.48230000     -36.92140000     -73.64550000
