40
Properties=species:S:1:pos:R:3 #=T CELL(abcABC):=T 1.889726e+02=T 90.00000=T Traj:=T positionsangstrom=T Step:=T 0=T Bead:=T pbc="F F F"
C      -45.03700000     -29.18150000     -73.73630000
C      -44.54000000     -30.49770000     -73.56650000
C      -44.12410000     -30.89920000     -72.28950000
C      -44.09140000     -30.02500000     -71.20680000
C      -44.64590000     -28.74300000     -71.42720000
C      -45.10200000     -28.25590000     -72.66230000
H      -45.45370000     -28.89050000     -74.62320000
H      -43.84530000     -31.93060000     -72.02320000
H      -44.74170000     -28.06850000     -70.63160000
H      -45.48730000     -27.21460000     -72.81290000
C      -43.57500000     -30.42750000     -69.82680000
H      -43.06840000     -29.56600000     -69.34690000
H      -42.88220000     -31.24740000     -69.91260000
C      -44.63320000     -31.45830000     -74.71920000
H      -44.58070000     -30.99650000     -75.70530000
H      -43.74290000     -32.10300000     -74.68330000
S      -44.97330000     -30.76330000     -68.60040000
S      -46.22920000     -32.50110000     -74.58590000
C      -45.83120000     -32.22670000     -69.33890000
H      -46.48770000     -32.58170000     -68.50130000
H      -46.33310000     -31.90610000     -70.25430000
C      -46.26350000     -33.52270000     -73.11020000
H      -47.20950000     -34.09410000     -73.30270000
H      -46.25860000     -32.90200000     -72.19030000
C      -45.08800000     -34.56810000     -73.04260000
H      -44.98620000     -34.92640000     -74.17570000
H      -44.17730000     -33.97830000     -72.81210000
C      -44.90770000     -33.38600000     -69.71620000
H      -43.99550000     -33.36440000     -69.08920000
H      -44.39410000     -33.25170000     -70.71230000
C      -45.45430000     -34.79360000     -69.57810000
C      -45.73280000     -35.39240000     -68.38060000
C      -45.50310000     -35.77320000     -70.64530000
H      -45.74660000     -34.94160000     -67.42660000
C      -45.79640000     -37.02580000     -70.21050000
C      -45.34900000     -35.80320000     -72.13340000
C      -45.59180000     -37.05260000     -72.63270000
S      -45.91220000     -37.11520000     -68.48740000
S      -45.92300000     -38.25840000     -71.44200000
H      -45.37640000     -37.35230000     -73.66110000
