40
Properties=species:S:1:pos:R:3 #=T CELL(abcABC):=T 1.889726e+02=T 90.00000=T Traj:=T positionsangstrom=T Step:=T 0=T Bead:=T pbc="F F F"
C      -44.89710000     -29.36550000     -73.85070000
C      -44.40260000     -30.62910000     -73.60180000
C      -43.99180000     -30.95780000     -72.30980000
C      -44.13550000     -30.09700000     -71.19690000
C      -44.67130000     -28.82540000     -71.49840000
C      -45.08490000     -28.47450000     -72.76670000
H      -45.29770000     -29.14320000     -74.89000000
H      -43.72390000     -31.97300000     -72.17870000
H      -44.76100000     -28.04630000     -70.73620000
H      -45.43220000     -27.48370000     -72.97560000
C      -43.60690000     -30.44820000     -69.87080000
H      -43.02700000     -29.64040000     -69.43110000
H      -42.88610000     -31.26860000     -69.91130000
C      -44.33450000     -31.64880000     -74.69200000
H      -44.15970000     -31.11400000     -75.65630000
H      -43.59110000     -32.46120000     -74.52510000
S      -44.93070000     -30.69340000     -68.66270000
S      -45.97030000     -32.55960000     -74.77780000
C      -45.57680000     -32.41790000     -68.65580000
H      -45.49060000     -32.81000000     -67.62410000
H      -46.67070000     -32.38970000     -68.91400000
C      -46.03790000     -33.55640000     -73.24150000
H      -46.96550000     -34.12970000     -73.38240000
H      -46.18320000     -32.90810000     -72.33760000
C      -44.93150000     -34.61760000     -72.95550000
H      -44.62320000     -35.01370000     -73.88690000
H      -44.00720000     -34.01320000     -72.62110000
C      -44.81210000     -33.39520000     -69.59960000
H      -43.79660000     -33.48440000     -69.20320000
H      -44.76140000     -32.97380000     -70.60830000
C      -45.45650000     -34.72270000     -69.54230000
C      -45.94810000     -35.23310000     -68.34410000
C      -45.61910000     -35.64260000     -70.61780000
H      -45.97160000     -34.74910000     -67.35240000
C      -46.11400000     -36.94760000     -70.21820000
C      -45.24000000     -35.72920000     -71.99340000
C      -45.37760000     -36.95810000     -72.59640000
S      -46.51580000     -36.92360000     -68.53440000
S      -46.07190000     -38.17640000     -71.45570000
H      -45.32480000     -37.22390000     -73.61610000
