40
Properties=species:S:1:pos:R:3 #=T CELL(abcABC):=T 1.889726e+02=T 90.00000=T Traj:=T positionsangstrom=T Step:=T 0=T Bead:=T pbc="F F F"
C      -45.43450000     -29.24260000     -73.66590000
C      -44.87720000     -30.50010000     -73.40350000
C      -44.31030000     -30.71460000     -72.17490000
C      -44.43600000     -29.72210000     -71.15160000
C      -45.05870000     -28.50320000     -71.43970000
C      -45.50240000     -28.25760000     -72.72970000
H      -45.91880000     -29.14250000     -74.73030000
H      -44.10490000     -31.77170000     -71.93010000
H      -45.10560000     -27.68710000     -70.66790000
H      -46.05710000     -27.38390000     -72.99330000
C      -44.02780000     -30.20500000     -69.71410000
H      -43.76370000     -29.26320000     -69.23150000
H      -43.10910000     -30.77850000     -69.65300000
C      -44.76760000     -31.60910000     -74.42550000
H      -44.35710000     -31.17230000     -75.33220000
H      -43.92960000     -32.21770000     -74.21170000
S      -45.31710000     -30.95790000     -68.64990000
S      -46.34950000     -32.46870000     -74.68230000
C      -45.72980000     -32.60220000     -69.49180000
H      -46.50130000     -33.03680000     -68.84660000
H      -45.97720000     -32.39200000     -70.52250000
C      -46.28450000     -33.67300000     -73.22900000
H      -47.10200000     -34.32490000     -73.48660000
H      -46.46250000     -33.09110000     -72.31610000
C      -44.91600000     -34.29460000     -72.99380000
H      -44.46450000     -34.60090000     -73.93720000
H      -44.15770000     -33.61340000     -72.40480000
C      -44.44630000     -33.55470000     -69.47840000
H      -43.98880000     -33.34210000     -68.49700000
H      -43.69060000     -33.27000000     -70.17930000
C      -44.91530000     -34.95970000     -69.47680000
C      -44.97350000     -35.66740000     -68.30580000
C      -45.19900000     -35.72280000     -70.61610000
H      -44.68040000     -35.33720000     -67.32390000
C      -45.64390000     -37.03070000     -70.23050000
C      -45.14830000     -35.56230000     -72.08180000
C      -45.51470000     -36.71830000     -72.72580000
S      -45.49070000     -37.37190000     -68.56900000
S      -45.90930000     -38.02220000     -71.60460000
H      -45.43680000     -36.95410000     -73.78100000
