40
Properties=species:S:1:pos:R:3 #=T CELL(abcABC):=T 1.889726e+02=T 90.00000=T Traj:=T positionsangstrom=T Step:=T 0=T Bead:=T pbc="F F F"
C      -47.28160000     -31.19950000     -68.90830000
C      -46.79400000     -32.33520000     -68.26480000
C      -45.38470000     -32.45390000     -68.02120000
C      -44.52100000     -31.45010000     -68.34420000
C      -45.10150000     -30.17640000     -68.75980000
C      -46.45770000     -30.08690000     -69.10620000
H      -48.37360000     -31.07020000     -69.09680000
H      -44.99580000     -33.33860000     -67.60250000
H      -44.49150000     -29.31940000     -68.70610000
H      -46.90830000     -29.17830000     -69.37530000
C      -43.06170000     -31.70780000     -68.11420000
H      -42.88270000     -31.95040000     -67.08260000
H      -42.50400000     -30.77870000     -68.35150000
C      -47.69740000     -33.45750000     -68.06150000
H      -47.63220000     -33.83100000     -67.07470000
H      -48.69770000     -33.08700000     -68.21310000
S      -42.35380000     -33.17180000     -69.03450000
S      -47.29530000     -34.97010000     -69.10880000
C      -42.89320000     -32.75190000     -70.73040000
H      -43.16070000     -31.70390000     -70.67810000
H      -42.06100000     -32.91360000     -71.33410000
C      -47.45270000     -34.46060000     -70.91930000
H      -47.13690000     -33.43140000     -71.09810000
H      -48.52860000     -34.49450000     -71.13980000
C      -46.72910000     -35.46350000     -71.76290000
H      -45.74160000     -35.69630000     -71.44020000
H      -47.30090000     -36.36010000     -71.85790000
C      -44.07070000     -33.67430000     -71.24120000
H      -44.97390000     -33.29890000     -70.80430000
H      -43.91200000     -34.74880000     -70.99910000
C      -44.23320000     -33.56490000     -72.75320000
C      -43.40910000     -32.85820000     -73.54810000
C      -45.24930000     -34.20330000     -73.53220000
H      -42.48930000     -32.35690000     -73.26890000
C      -45.12760000     -34.11590000     -74.92330000
C      -46.36580000     -35.01610000     -73.17270000
C      -47.11360000     -35.52720000     -74.27200000
S      -43.77390000     -33.00420000     -75.27440000
S      -46.39350000     -34.99090000     -75.79000000
H      -47.96830000     -36.13680000     -74.22940000
