40
Properties=species:S:1:pos:R:3 #=T CELL(abcABC):=T 1.889726e+02=T 90.00000=T Traj:=T positionsangstrom=T Step:=T 0=T Bead:=T pbc="F F F"
C      -47.05580000     -31.72440000     -69.43670000
C      -46.49090000     -32.55030000     -68.44710000
C      -45.14000000     -32.33200000     -68.12950000
C      -44.36800000     -31.48370000     -68.95050000
C      -44.98400000     -30.73290000     -69.98840000
C      -46.33320000     -30.87680000     -70.25990000
H      -48.13890000     -31.73140000     -69.68680000
H      -44.64820000     -32.83920000     -67.32920000
H      -44.36770000     -29.98040000     -70.54090000
H      -46.84050000     -30.27600000     -70.95480000
C      -42.89210000     -31.31750000     -68.74320000
H      -42.58780000     -31.29060000     -67.71880000
H      -42.56910000     -30.34180000     -69.17420000
C      -47.44310000     -33.61430000     -67.88540000
H      -47.17750000     -33.82190000     -66.77070000
H      -48.45250000     -33.34590000     -68.07010000
S      -41.89560000     -32.71380000     -69.33170000
S      -47.13100000     -35.25590000     -68.61630000
C      -42.39420000     -32.84800000     -71.09090000
H      -42.53680000     -31.81020000     -71.45330000
H      -41.59890000     -33.37620000     -71.64850000
C      -47.09550000     -34.81740000     -70.41350000
H      -46.49500000     -33.89640000     -70.52660000
H      -48.12010000     -34.58770000     -70.76140000
C      -46.34230000     -35.80160000     -71.31960000
H      -45.28800000     -35.83200000     -71.03630000
H      -46.74610000     -36.83320000     -71.43210000
C      -43.72580000     -33.60400000     -71.29460000
H      -44.42000000     -33.34840000     -70.49520000
H      -43.39560000     -34.57740000     -71.03200000
C      -44.26830000     -33.45680000     -72.70110000
C      -43.78950000     -32.61400000     -73.66350000
C      -45.37670000     -34.21760000     -73.21970000
H      -42.91800000     -31.92730000     -73.54330000
C      -45.61280000     -33.90420000     -74.57050000
C      -46.34200000     -35.23980000     -72.73970000
C      -47.33100000     -35.54290000     -73.69930000
S      -44.54340000     -32.69210000     -75.19100000
S      -47.14970000     -34.58340000     -75.16680000
H      -48.06330000     -36.32830000     -73.63860000
