40
Properties=species:S:1:pos:R:3 #=T CELL(abcABC):=T 1.889726e+02=T 90.00000=T Traj:=T positionsangstrom=T Step:=T 0=T Bead:=T pbc="F F F"
C      -47.04050000     -31.25830000     -69.13730000
C      -46.59160000     -32.47010000     -68.58590000
C      -45.24730000     -32.53780000     -68.14340000
C      -44.37890000     -31.50570000     -68.50110000
C      -44.79580000     -30.38880000     -69.24360000
C      -46.16890000     -30.26530000     -69.57690000
H      -48.15680000     -31.11710000     -69.28150000
H      -44.91690000     -33.44820000     -67.55900000
H      -44.00000000     -29.65960000     -69.56680000
H      -46.49120000     -29.42670000     -70.21540000
C      -42.94310000     -31.57370000     -68.12460000
H      -42.92590000     -31.82960000     -67.08360000
H      -42.40020000     -30.61440000     -68.23360000
C      -47.61020000     -33.48720000     -68.13820000
H      -47.50610000     -33.57470000     -67.14160000
H      -48.64130000     -33.18720000     -68.50030000
S      -42.13890000     -32.94650000     -69.14470000
S      -47.33930000     -35.19440000     -68.78610000
C      -42.64950000     -32.60300000     -70.93320000
H      -43.07590000     -31.55270000     -70.95180000
H      -41.70040000     -32.73170000     -71.44600000
C      -47.24810000     -34.92800000     -70.61450000
H      -46.78160000     -33.96990000     -70.82850000
H      -48.27730000     -34.87860000     -71.01210000
C      -46.34590000     -35.82150000     -71.49040000
H      -45.33930000     -35.83400000     -71.13130000
H      -46.78450000     -36.88760000     -71.43580000
C      -43.65280000     -33.66550000     -71.41240000
H      -44.52130000     -33.72260000     -70.73310000
H      -43.21370000     -34.67000000     -71.43420000
C      -44.10660000     -33.53230000     -72.85180000
C      -43.64740000     -32.65590000     -73.75950000
C      -45.27040000     -34.31590000     -73.43050000
H      -42.94930000     -31.87470000     -73.75030000
C      -45.47980000     -33.94640000     -74.74600000
C      -46.30180000     -35.18100000     -72.90960000
C      -47.27300000     -35.48560000     -73.86500000
S      -44.32030000     -32.78660000     -75.39600000
S      -46.96160000     -34.74590000     -75.44820000
H      -48.18240000     -36.13440000     -73.56010000
