40
Properties=species:S:1:pos:R:3 #=T CELL(abcABC):=T 1.889726e+02=T 90.00000=T Traj:=T positionsangstrom=T Step:=T 0=T Bead:=T pbc="F F F"
C      -47.07380000     -31.44220000     -69.36010000
C      -46.58030000     -32.45410000     -68.53350000
C      -45.24750000     -32.47480000     -68.20700000
C      -44.41130000     -31.41250000     -68.62200000
C      -44.90230000     -30.37300000     -69.47570000
C      -46.25810000     -30.41180000     -69.84000000
H      -48.09720000     -31.59540000     -69.60880000
H      -44.91710000     -33.29740000     -67.70550000
H      -44.29260000     -29.56960000     -69.76750000
H      -46.60020000     -29.63370000     -70.56240000
C      -42.92890000     -31.52020000     -68.37650000
H      -42.81690000     -31.63720000     -67.26990000
H      -42.37530000     -30.64890000     -68.71380000
C      -47.52700000     -33.58180000     -68.05430000
H      -47.48290000     -33.70640000     -66.95640000
H      -48.58930000     -33.13650000     -68.24110000
S      -41.99510000     -32.91820000     -69.30560000
S      -47.23000000     -35.16800000     -68.72900000
C      -42.60500000     -32.62000000     -71.03400000
H      -43.23030000     -31.71210000     -71.06170000
H      -41.82630000     -32.35700000     -71.74570000
C      -47.44610000     -34.92540000     -70.50430000
H      -47.45430000     -33.82950000     -70.62170000
H      -48.40610000     -35.28880000     -70.89100000
C      -46.38570000     -35.68140000     -71.30750000
H      -45.39100000     -35.60500000     -70.88580000
H      -46.47860000     -36.75170000     -71.28840000
C      -43.48970000     -33.79090000     -71.53330000
H      -44.24920000     -33.91280000     -70.81060000
H      -42.94940000     -34.75970000     -71.43940000
C      -44.07560000     -33.60840000     -72.86200000
C      -43.51500000     -32.80050000     -73.78130000
C      -45.28170000     -34.27290000     -73.33200000
H      -42.54960000     -32.30300000     -73.78270000
C      -45.60510000     -33.84880000     -74.65570000
C      -46.30120000     -35.15240000     -72.75360000
C      -47.19290000     -35.61810000     -73.73470000
S      -44.44280000     -32.70140000     -75.28340000
S      -47.06510000     -34.72100000     -75.23990000
H      -48.11620000     -36.23720000     -73.41730000
