40
Properties=species:S:1:pos:R:3 #=T CELL(abcABC):=T 1.889726e+02=T 90.00000=T Traj:=T positionsangstrom=T Step:=T 0=T Bead:=T pbc="F F F"
C      -47.12750000     -36.18460000     -72.38320000
C      -47.45650000     -35.96900000     -71.05990000
C      -46.43800000     -36.24560000     -70.07900000
C      -45.15760000     -36.63690000     -70.43130000
C      -44.76510000     -36.66700000     -71.78230000
C      -45.81390000     -36.58090000     -72.70450000
H      -47.88570000     -35.99650000     -73.15040000
H      -46.71120000     -36.24570000     -68.99670000
H      -43.73190000     -36.91630000     -72.07580000
H      -45.47280000     -36.55680000     -73.74770000
C      -44.06070000     -36.76150000     -69.36890000
H      -43.14490000     -37.14950000     -69.83580000
H      -44.31810000     -37.46360000     -68.62290000
C      -48.79150000     -35.49750000     -70.53150000
H      -49.61670000     -35.44780000     -71.29380000
H      -49.13270000     -36.14890000     -69.74160000
S      -43.66920000     -35.15340000     -68.54660000
S      -48.52300000     -33.74370000     -69.62200000
C      -42.96970000     -34.14320000     -69.80660000
H      -42.28380000     -33.38230000     -69.31320000
H      -42.33320000     -34.63830000     -70.59090000
C      -47.57010000     -32.97010000     -71.02280000
H      -48.23530000     -32.85740000     -71.86240000
H      -46.80000000     -33.68490000     -71.25930000
C      -46.83380000     -31.67800000     -70.70340000
H      -47.63830000     -30.99340000     -70.39750000
H      -46.14600000     -31.77470000     -69.87680000
C      -44.10290000     -33.39790000     -70.52400000
H      -44.79290000     -33.11060000     -69.76470000
H      -44.62100000     -34.09670000     -71.22230000
C      -43.63560000     -32.24690000     -71.41520000
C      -42.41770000     -32.12370000     -72.08150000
C      -44.61930000     -31.33540000     -71.96930000
H      -41.52710000     -32.74990000     -71.98720000
C      -44.10770000     -30.54500000     -73.04250000
C      -45.99200000     -31.06840000     -71.78000000
C      -46.50810000     -30.15290000     -72.71300000
S      -42.47670000     -30.94960000     -73.37410000
S      -45.29720000     -29.61450000     -73.86360000
H      -47.47440000     -29.75840000     -72.74250000
