40
Properties=species:S:1:pos:R:3 #=T CELL(abcABC):=T 1.889726e+02=T 90.00000=T Traj:=T positionsangstrom=T Step:=T 0=T Bead:=T pbc="F F F"
C      -47.74420000     -33.48950000     -68.49970000
C      -48.06860000     -34.16890000     -69.67570000
C      -48.28960000     -33.44900000     -70.84630000
C      -48.20840000     -32.02860000     -70.83040000
C      -47.84250000     -31.38380000     -69.64000000
C      -47.50590000     -32.08270000     -68.53270000
H      -47.78340000     -33.97690000     -67.56180000
H      -48.58230000     -33.91290000     -71.75270000
H      -47.74020000     -30.26280000     -69.59910000
H      -47.44960000     -31.50980000     -67.63410000
C      -48.55290000     -31.21940000     -72.03750000
H      -48.12870000     -30.19850000     -72.12550000
H      -49.61180000     -31.07200000     -72.04160000
C      -48.15510000     -35.66370000     -69.69610000
H      -48.77960000     -36.05310000     -68.91240000
H      -48.56880000     -35.99630000     -70.66710000
S      -48.18640000     -32.11960000     -73.61450000
S      -46.54930000     -36.56430000     -69.45940000
C      -46.32360000     -31.78850000     -73.66680000
H      -45.98880000     -32.24950000     -74.59170000
H      -46.12570000     -30.71020000     -73.84370000
C      -45.36590000     -35.79120000     -70.60860000
H      -45.91170000     -35.40080000     -71.55060000
H      -44.68320000     -36.54160000     -70.97890000
C      -44.69630000     -34.55420000     -69.95180000
H      -45.47470000     -33.75810000     -69.92250000
H      -44.51090000     -34.73300000     -68.86830000
C      -45.60200000     -32.45480000     -72.46790000
H      -45.99370000     -33.47640000     -72.45900000
H      -45.89350000     -31.97690000     -71.50530000
C      -44.08010000     -32.51600000     -72.67900000
C      -43.39910000     -31.91490000     -73.67980000
C      -43.24890000     -33.21270000     -71.73520000
H      -43.78960000     -31.31140000     -74.47480000
C      -41.91900000     -33.03480000     -72.00680000
C      -43.37380000     -34.13650000     -70.60250000
C      -42.18300000     -34.62000000     -70.10290000
S      -41.65190000     -32.17840000     -73.53080000
S      -40.78290000     -33.99860000     -71.06010000
H      -42.00980000     -35.33140000     -69.29440000
