40
Properties=species:S:1:pos:R:3 #=T CELL(abcABC):=T 1.889726e+02=T 90.00000=T Traj:=T positionsangstrom=T Step:=T 0=T Bead:=T pbc="F F F"
C      -46.90920000     -31.46900000     -68.99070000
C      -46.12270000     -32.45930000     -68.32760000
C      -44.70200000     -32.41730000     -68.35300000
C      -44.08680000     -31.26440000     -68.86330000
C      -44.90260000     -30.27300000     -69.45890000
C      -46.27720000     -30.31870000     -69.48490000
H      -48.04570000     -31.55830000     -68.97450000
H      -44.15820000     -33.14160000     -67.79940000
H      -44.44770000     -29.32950000     -69.76950000
H      -46.96000000     -29.48620000     -69.71180000
C      -42.59260000     -31.20610000     -68.82570000
H      -42.15300000     -31.28480000     -67.85130000
H      -42.38260000     -30.26330000     -69.23660000
C      -46.78010000     -33.59810000     -67.62450000
H      -46.63680000     -33.87540000     -66.63220000
H      -47.88850000     -33.43800000     -67.78150000
S      -41.90600000     -32.58060000     -69.83270000
S      -46.37980000     -35.28180000     -68.41480000
C      -42.75110000     -32.38570000     -71.38840000
H      -43.33500000     -31.52290000     -71.38650000
H      -42.17730000     -32.36420000     -72.32240000
C      -46.68200000     -34.91670000     -70.19790000
H      -46.61970000     -33.89180000     -70.51300000
H      -47.71590000     -35.08950000     -70.30310000
C      -46.00410000     -35.89330000     -71.21560000
H      -44.90900000     -35.88830000     -70.98750000
H      -46.24980000     -36.96830000     -71.07680000
C      -43.73570000     -33.56740000     -71.74160000
H      -44.49540000     -33.57850000     -71.00580000
H      -43.19020000     -34.55580000     -71.72130000
C      -44.52270000     -33.43550000     -73.02630000
C      -44.19460000     -32.62580000     -74.09170000
C      -45.65430000     -34.26890000     -73.30850000
H      -43.68250000     -31.71390000     -73.85140000
C      -46.24800000     -33.98270000     -74.52600000
C      -46.31270000     -35.43210000     -72.68230000
C      -47.27500000     -36.02470000     -73.50770000
S      -45.37710000     -32.78920000     -75.44360000
S      -47.56040000     -35.06070000     -75.01410000
H      -47.97380000     -36.91500000     -73.36540000
