40
Properties=species:S:1:pos:R:3 #=T CELL(abcABC):=T 1.889726e+02=T 90.00000=T Traj:=T positionsangstrom=T Step:=T 0=T Bead:=T pbc="F F F"
C      -46.81250000     -31.19770000     -68.15760000
C      -46.06310000     -32.41900000     -68.07060000
C      -44.72440000     -32.41830000     -68.35460000
C      -44.05860000     -31.26020000     -68.81660000
C      -44.84950000     -30.07410000     -68.95830000
C      -46.19040000     -30.04460000     -68.62140000
H      -47.91470000     -31.23870000     -68.01330000
H      -44.19300000     -33.41120000     -68.18690000
H      -44.31830000     -29.29900000     -69.39870000
H      -46.79630000     -29.18000000     -68.79960000
C      -42.54810000     -31.27060000     -69.03800000
H      -42.06600000     -31.42240000     -68.11030000
H      -42.17930000     -30.24660000     -69.33380000
C      -46.82710000     -33.63960000     -67.62670000
H      -46.60020000     -33.78650000     -66.52080000
H      -47.91850000     -33.40890000     -67.73030000
S      -41.74410000     -32.39750000     -70.28480000
S      -46.19550000     -35.22760000     -68.41270000
C      -42.78600000     -32.34470000     -71.91320000
H      -43.02530000     -31.24500000     -72.06410000
H      -42.07830000     -32.70410000     -72.67040000
C      -46.46200000     -34.91660000     -70.13530000
H      -46.27580000     -33.87990000     -70.21360000
H      -47.56480000     -35.04870000     -70.44410000
C      -45.74600000     -35.84600000     -71.16290000
H      -44.66960000     -35.68270000     -71.14980000
H      -46.00520000     -36.94370000     -70.92300000
C      -44.06490000     -33.16200000     -71.88840000
H      -44.85240000     -32.75110000     -71.21240000
H      -43.82690000     -34.15670000     -71.48350000
C      -44.69770000     -33.26710000     -73.30420000
C      -44.59170000     -32.49530000     -74.44040000
C      -45.66110000     -34.34930000     -73.45170000
H      -43.94550000     -31.60310000     -74.60940000
C      -46.35340000     -34.26920000     -74.63220000
C      -46.15300000     -35.48890000     -72.57950000
C      -47.16680000     -36.13660000     -73.22230000
S      -45.73030000     -33.03910000     -75.70880000
S      -47.59050000     -35.45840000     -74.78760000
H      -47.57460000     -36.99560000     -72.66190000
