40
Properties=species:S:1:pos:R:3 #=T CELL(abcABC):=T 1.889726e+02=T 90.00000=T Traj:=T positionsangstrom=T Step:=T 0=T Bead:=T pbc="F F F"
C      -46.73930000     -31.21360000     -68.28000000
C      -45.99230000     -32.40230000     -68.22510000
C      -44.63070000     -32.38540000     -68.60860000
C      -44.00050000     -31.22820000     -68.96340000
C      -44.78710000     -30.00330000     -68.94710000
C      -46.17470000     -30.02520000     -68.71500000
H      -47.82610000     -31.21890000     -67.87900000
H      -44.04510000     -33.32320000     -68.57860000
H      -44.29270000     -29.00850000     -69.12820000
H      -46.78030000     -29.16230000     -68.60670000
C      -42.56120000     -31.04420000     -69.27270000
H      -41.96170000     -31.02230000     -68.32510000
H      -42.39660000     -30.07920000     -69.85320000
C      -46.59000000     -33.64510000     -67.57820000
H      -46.41040000     -33.80350000     -66.44740000
H      -47.62170000     -33.62780000     -67.67150000
S      -41.83210000     -32.40250000     -70.33840000
S      -46.03900000     -35.21640000     -68.34400000
C      -42.58250000     -32.26890000     -71.96190000
H      -42.67710000     -31.18650000     -72.15790000
H      -41.91390000     -32.63470000     -72.66170000
C      -46.71270000     -34.81400000     -70.07030000
H      -46.63760000     -33.77430000     -70.32920000
H      -47.78140000     -35.13170000     -70.12210000
C      -45.95510000     -35.72350000     -71.07470000
H      -44.92270000     -35.49970000     -71.16820000
H      -46.05580000     -36.70110000     -70.64760000
C      -43.84320000     -33.14280000     -72.02500000
H      -44.46620000     -32.81010000     -71.20720000
H      -43.45380000     -34.09690000     -71.64040000
C      -44.72430000     -33.41120000     -73.20560000
C      -44.57200000     -32.65440000     -74.31690000
C      -45.76980000     -34.46330000     -73.34760000
H      -44.01680000     -31.71490000     -74.39220000
C      -46.31580000     -34.42340000     -74.58990000
C      -46.42000000     -35.44810000     -72.48160000
C      -47.36960000     -36.11800000     -73.16270000
S      -45.70620000     -33.10230000     -75.56000000
S      -47.70470000     -35.51600000     -74.78380000
H      -48.04370000     -36.76260000     -72.65250000
