40
Properties=species:S:1:pos:R:3 #=T CELL(abcABC):=T 1.889726e+02=T 90.00000=T Traj:=T positionsangstrom=T Step:=T 0=T Bead:=T pbc="F F F"
C      -46.73850000     -31.48830000     -68.63040000
C      -45.91350000     -32.49250000     -67.97570000
C      -44.52060000     -32.25550000     -68.00840000
C      -43.92150000     -31.25240000     -68.83140000
C      -44.72930000     -30.33370000     -69.43360000
C      -46.16030000     -30.43090000     -69.35460000
H      -47.78870000     -31.61850000     -68.60100000
H      -43.81150000     -32.94900000     -67.57620000
H      -44.28900000     -29.66600000     -70.13190000
H      -46.78250000     -29.68900000     -69.76600000
C      -42.43980000     -31.22920000     -68.98020000
H      -41.87440000     -31.41960000     -68.11540000
H      -42.14060000     -30.29750000     -69.29870000
C      -46.57710000     -33.72270000     -67.44850000
H      -46.12670000     -33.92970000     -66.42270000
H      -47.57390000     -33.48170000     -67.43730000
S      -41.83330000     -32.48840000     -70.27580000
S      -46.24780000     -35.23850000     -68.54440000
C      -42.96190000     -32.30860000     -71.63650000
H      -43.25220000     -31.23930000     -71.69250000
H      -42.47080000     -32.62600000     -72.48730000
C      -47.03920000     -35.01010000     -70.18830000
H      -46.97870000     -34.02530000     -70.50100000
H      -48.08970000     -35.30660000     -70.12380000
C      -46.35360000     -35.85150000     -71.22520000
H      -45.28100000     -36.09740000     -70.85590000
H      -46.87640000     -36.83160000     -71.25220000
C      -44.20400000     -33.27470000     -71.52100000
H      -44.77040000     -32.83260000     -70.68990000
H      -43.87180000     -34.20720000     -71.13610000
C      -44.92580000     -33.24770000     -72.83980000
C      -44.55520000     -32.45710000     -73.91240000
C      -45.91680000     -34.23960000     -73.21340000
H      -43.81020000     -31.68720000     -74.01060000
C      -46.25900000     -34.08930000     -74.58430000
C      -46.52510000     -35.41490000     -72.63180000
C      -47.27960000     -36.12010000     -73.53610000
S      -45.48220000     -32.68330000     -75.32960000
S      -47.16520000     -35.42180000     -75.20110000
H      -47.87160000     -36.97220000     -73.46200000
