40
Properties=species:S:1:pos:R:3 #=T CELL(abcABC):=T 1.889726e+02=T 90.00000=T Traj:=T positionsangstrom=T Step:=T 0=T Bead:=T pbc="F F F"
C      -46.80960000     -31.37020000     -68.36360000
C      -46.02820000     -32.50540000     -68.15300000
C      -44.64010000     -32.44770000     -68.32110000
C      -44.03850000     -31.23370000     -68.81190000
C      -44.83990000     -30.13260000     -69.09100000
C      -46.22810000     -30.16380000     -68.85380000
H      -47.77220000     -31.43010000     -68.03450000
H      -43.97220000     -33.32030000     -68.24570000
H      -44.41160000     -29.17920000     -69.44540000
H      -46.81660000     -29.26510000     -69.03560000
C      -42.54220000     -31.21230000     -69.01410000
H      -41.99190000     -31.41360000     -68.09010000
H      -42.22250000     -30.23740000     -69.40390000
C      -46.70790000     -33.73250000     -67.65540000
H      -46.50190000     -33.80480000     -66.65160000
H      -47.83180000     -33.63510000     -67.69550000
S      -41.91500000     -32.46570000     -70.23110000
S      -46.29010000     -35.26580000     -68.46030000
C      -42.76740000     -32.05600000     -71.78780000
H      -42.97550000     -31.04780000     -71.87680000
H      -42.07530000     -32.32810000     -72.58750000
C      -46.58470000     -34.81560000     -70.31260000
H      -46.34220000     -33.69420000     -70.29530000
H      -47.60370000     -34.90040000     -70.58080000
C      -45.80330000     -35.77560000     -71.17150000
H      -44.71420000     -35.76840000     -71.07460000
H      -46.14080000     -36.80730000     -70.81930000
C      -44.03560000     -32.99330000     -71.85050000
H      -44.68370000     -32.58030000     -71.13060000
H      -43.73850000     -33.95780000     -71.46420000
C      -44.66350000     -33.33890000     -73.20880000
C      -44.59130000     -32.48780000     -74.31190000
C      -45.67440000     -34.33180000     -73.34390000
H      -43.85050000     -31.72530000     -74.50570000
C      -46.35480000     -34.24230000     -74.55950000
C      -46.15810000     -35.43880000     -72.56400000
C      -47.15060000     -36.12510000     -73.21870000
S      -45.68680000     -32.96720000     -75.55790000
S      -47.44170000     -35.52240000     -74.85360000
H      -47.47790000     -37.11260000     -72.87210000
