40
Properties=species:S:1:pos:R:3 #=T CELL(abcABC):=T 1.889726e+02=T 90.00000=T Traj:=T positionsangstrom=T Step:=T 0=T Bead:=T pbc="F F F"
C      -47.14080000     -35.90910000     -72.34560000
C      -47.34120000     -35.95870000     -70.95980000
C      -46.23960000     -36.28060000     -70.17550000
C      -44.97890000     -36.65960000     -70.70190000
C      -44.78240000     -36.66980000     -72.05570000
C      -45.85750000     -36.27030000     -72.83030000
H      -47.82430000     -35.54570000     -73.11360000
H      -46.36630000     -36.22780000     -69.10160000
H      -43.84680000     -36.92230000     -72.47420000
H      -45.69540000     -36.26100000     -73.87640000
C      -43.89410000     -37.00620000     -69.68400000
H      -43.04280000     -37.56150000     -70.08410000
H      -44.32340000     -37.63130000     -68.87170000
C      -48.69620000     -35.57600000     -70.48060000
H      -49.38940000     -35.53260000     -71.29090000
H      -49.03570000     -36.28110000     -69.72400000
S      -43.29790000     -35.51250000     -68.70670000
S      -48.64580000     -33.87220000     -69.70390000
C      -42.73310000     -34.17190000     -69.93070000
H      -41.85920000     -33.69280000     -69.44910000
H      -42.31000000     -34.71350000     -70.81130000
C      -47.93630000     -32.84260000     -71.02410000
H      -48.75360000     -32.39960000     -71.49680000
H      -47.40280000     -33.52700000     -71.62460000
C      -46.90670000     -31.72020000     -70.61950000
H      -47.48020000     -30.96430000     -70.15870000
H      -46.23860000     -32.06830000     -69.81620000
C      -43.91140000     -33.25360000     -70.24690000
H      -44.25630000     -32.72830000     -69.36410000
H      -44.80050000     -33.90200000     -70.36660000
C      -43.83010000     -32.27380000     -71.48300000
C      -42.60990000     -32.21240000     -72.15240000
C      -44.71390000     -31.31160000     -71.98080000
H      -41.67960000     -32.67110000     -71.95000000
C      -44.23530000     -30.45860000     -72.93430000
C      -46.09010000     -31.18810000     -71.75570000
C      -46.57460000     -30.08010000     -72.50120000
S      -42.57670000     -30.98270000     -73.36130000
S      -45.40440000     -29.24610000     -73.47050000
H      -47.62910000     -29.80600000     -72.60390000
