40
Properties=species:S:1:pos:R:3 #=T CELL(abcABC):=T 1.889726e+02=T 90.00000=T Traj:=T positionsangstrom=T Step:=T 0=T Bead:=T pbc="F F F"
C      -46.65550000     -31.11220000     -68.21100000
C      -45.78500000     -32.20790000     -67.95570000
C      -44.44360000     -32.12140000     -68.42760000
C      -44.09930000     -30.98390000     -69.24710000
C      -45.05200000     -30.00430000     -69.56040000
C      -46.29060000     -30.10160000     -69.07870000
H      -47.75320000     -31.15620000     -67.85190000
H      -43.70710000     -32.86360000     -68.26250000
H      -44.66570000     -29.17740000     -70.07180000
H      -47.08370000     -29.41050000     -69.42060000
C      -42.64120000     -30.78630000     -69.65860000
H      -42.06210000     -30.71150000     -68.71520000
H      -42.51640000     -29.82480000     -70.13410000
C      -46.15570000     -33.52420000     -67.21800000
H      -45.63200000     -33.47500000     -66.22510000
H      -47.25220000     -33.51500000     -66.90110000
S      -41.82930000     -32.18980000     -70.45260000
S      -45.71760000     -35.01450000     -68.17490000
C      -42.87590000     -32.35030000     -71.92860000
H      -43.49390000     -31.49480000     -71.97290000
H      -42.20490000     -32.31820000     -72.81580000
C      -46.64080000     -34.77740000     -69.81460000
H      -46.49900000     -33.70000000     -70.19110000
H      -47.71390000     -34.89610000     -69.61350000
C      -46.13490000     -35.73890000     -70.87470000
H      -45.10710000     -35.85720000     -70.69370000
H      -46.65260000     -36.70860000     -70.70550000
C      -43.77520000     -33.63870000     -71.99100000
H      -44.51420000     -33.65600000     -71.22110000
H      -43.16960000     -34.56880000     -72.02620000
C      -44.68040000     -33.67430000     -73.24890000
C      -44.41150000     -33.13050000     -74.49320000
C      -45.87880000     -34.48340000     -73.27950000
H      -43.55900000     -32.46040000     -74.72950000
C      -46.51200000     -34.43790000     -74.50140000
C      -46.58570000     -35.38990000     -72.36490000
C      -47.68020000     -35.97450000     -72.93880000
S      -45.58790000     -33.50070000     -75.72890000
S      -47.91620000     -35.49640000     -74.66420000
H      -48.42190000     -36.63410000     -72.49830000
