40
Properties=species:S:1:pos:R:3 #=T CELL(abcABC):=T 1.889726e+02=T 90.00000=T Traj:=T positionsangstrom=T Step:=T 0=T Bead:=T pbc="F F F"
C      -46.73690000     -31.22340000     -68.59000000
C      -45.80310000     -32.16950000     -68.21150000
C      -44.40730000     -32.01490000     -68.67860000
C      -44.05150000     -30.96050000     -69.51130000
C      -45.12580000     -30.10580000     -70.01580000
C      -46.37740000     -30.23000000     -69.48480000
H      -47.86270000     -31.41410000     -68.23070000
H      -43.67650000     -32.64950000     -68.29830000
H      -44.93960000     -29.32380000     -70.79940000
H      -47.20620000     -29.59040000     -69.78250000
C      -42.60770000     -30.64550000     -69.84330000
H      -42.03010000     -30.32380000     -68.94330000
H      -42.61290000     -29.82650000     -70.52110000
C      -46.08290000     -33.29860000     -67.24990000
H      -45.26120000     -33.37330000     -66.53310000
H      -47.02960000     -33.14860000     -66.76070000
S      -41.66970000     -32.03060000     -70.66160000
S      -46.11780000     -34.95640000     -68.04920000
C      -42.67470000     -32.37070000     -72.16810000
H      -43.07310000     -31.46020000     -72.48600000
H      -41.99110000     -32.72370000     -72.96700000
C      -46.60920000     -34.69780000     -69.76000000
H      -46.37110000     -33.70870000     -70.15120000
H      -47.71320000     -34.77320000     -69.91030000
C      -45.97740000     -35.78890000     -70.66670000
H      -44.95230000     -35.92120000     -70.69710000
H      -46.46170000     -36.73760000     -70.34450000
C      -43.79340000     -33.29790000     -71.91050000
H      -44.54220000     -32.90010000     -71.17480000
H      -43.40490000     -34.31260000     -71.54000000
C      -44.70250000     -33.53730000     -73.08790000
C      -44.64550000     -33.00930000     -74.32630000
C      -45.77000000     -34.56930000     -73.02760000
H      -44.32090000     -32.07670000     -74.66580000
C      -46.46410000     -34.57530000     -74.24990000
C      -46.42210000     -35.51430000     -72.13160000
C      -47.41850000     -36.25840000     -72.74360000
S      -45.88030000     -33.45920000     -75.43120000
S      -47.63930000     -35.85120000     -74.49130000
H      -47.90000000     -37.13410000     -72.25870000
