40
Properties=species:S:1:pos:R:3 #=T CELL(abcABC):=T 1.889726e+02=T 90.00000=T Traj:=T positionsangstrom=T Step:=T 0=T Bead:=T pbc="F F F"
C      -46.67840000     -31.35800000     -68.52900000
C      -45.65910000     -32.22080000     -68.02910000
C      -44.33430000     -31.93140000     -68.38100000
C      -43.99640000     -30.83550000     -69.14910000
C      -44.94130000     -30.01100000     -69.73110000
C      -46.31130000     -30.24180000     -69.31740000
H      -47.66870000     -31.53850000     -68.38990000
H      -43.56070000     -32.68590000     -68.03430000
H      -44.75370000     -29.24530000     -70.49340000
H      -47.09980000     -29.57510000     -69.64440000
C      -42.52920000     -30.68770000     -69.54330000
H      -41.92130000     -30.59220000     -68.61310000
H      -42.32310000     -29.76210000     -70.11360000
C      -46.10850000     -33.48930000     -67.27210000
H      -45.62500000     -33.65110000     -66.27570000
H      -47.24820000     -33.47550000     -67.16830000
S      -41.82550000     -32.13020000     -70.44840000
S      -45.72910000     -35.02020000     -68.22420000
C      -42.89890000     -32.33360000     -71.99130000
H      -43.39740000     -31.35390000     -72.18920000
H      -42.21290000     -32.39750000     -72.78890000
C      -46.47700000     -34.60930000     -69.82990000
H      -46.23080000     -33.63380000     -70.29980000
H      -47.56060000     -34.60340000     -69.72360000
C      -46.13810000     -35.72700000     -70.82550000
H      -45.01960000     -35.89720000     -70.70810000
H      -46.61200000     -36.67040000     -70.59870000
C      -43.95980000     -33.53370000     -71.94840000
H      -44.71810000     -33.30550000     -71.17510000
H      -43.44750000     -34.45570000     -71.71740000
C      -44.72970000     -33.65260000     -73.25120000
C      -44.52140000     -33.15550000     -74.51850000
C      -45.88800000     -34.50960000     -73.27530000
H      -43.71840000     -32.53620000     -74.80090000
C      -46.52170000     -34.53010000     -74.49050000
C      -46.51760000     -35.36720000     -72.25340000
C      -47.66770000     -35.98770000     -72.75260000
S      -45.69240000     -33.66590000     -75.74230000
S      -47.98150000     -35.49270000     -74.46780000
H      -48.25040000     -36.67150000     -72.17870000
