40
Properties=species:S:1:pos:R:3 #=T CELL(abcABC):=T 1.889726e+02=T 90.00000=T Traj:=T positionsangstrom=T Step:=T 0=T Bead:=T pbc="F F F"
C      -47.00880000     -35.88170000     -72.52500000
C      -47.25420000     -35.86420000     -71.13230000
C      -46.14310000     -36.17920000     -70.26790000
C      -44.82930000     -36.53090000     -70.74530000
C      -44.70520000     -36.58250000     -72.16510000
C      -45.77140000     -36.31200000     -73.00390000
H      -47.84020000     -35.71960000     -73.17700000
H      -46.37730000     -36.20180000     -69.22560000
H      -43.79510000     -36.81270000     -72.73160000
H      -45.67110000     -36.29610000     -74.05480000
C      -43.67770000     -36.97220000     -69.85780000
H      -42.88120000     -37.37340000     -70.49280000
H      -43.96420000     -37.75470000     -69.18680000
C      -48.58450000     -35.56150000     -70.55440000
H      -49.39770000     -35.78030000     -71.27970000
H      -48.94770000     -36.13260000     -69.66460000
S      -43.00240000     -35.62360000     -68.88070000
S      -48.78430000     -33.86300000     -69.86340000
C      -42.84510000     -34.30130000     -70.12350000
H      -42.03930000     -33.58620000     -69.89100000
H      -42.67270000     -34.72990000     -71.08760000
C      -47.86030000     -32.81510000     -71.08710000
H      -48.65590000     -32.46920000     -71.83350000
H      -47.12860000     -33.46370000     -71.70740000
C      -47.13460000     -31.64040000     -70.42610000
H      -47.84290000     -30.85320000     -70.03960000
H      -46.55240000     -31.99540000     -69.55190000
C      -44.14180000     -33.47460000     -70.26050000
H      -44.40770000     -33.10240000     -69.24510000
H      -44.99480000     -34.06640000     -70.69960000
C      -43.85980000     -32.38710000     -71.31190000
C      -42.72200000     -32.26510000     -72.02990000
C      -44.85230000     -31.35930000     -71.80010000
H      -41.83840000     -32.84210000     -71.78180000
C      -44.36020000     -30.58650000     -72.83340000
C      -46.19380000     -30.92820000     -71.36980000
C      -46.52650000     -29.76110000     -72.00950000
S      -42.70900000     -30.94650000     -73.24530000
S      -45.40970000     -29.34140000     -73.34770000
H      -47.56000000     -29.37650000     -71.78730000
