40
Properties=species:S:1:pos:R:3 #=T CELL(abcABC):=T 1.889726e+02=T 90.00000=T Traj:=T positionsangstrom=T Step:=T 0=T Bead:=T pbc="F F F"
C      -41.57590000     -34.21750000     -69.65200000
C      -42.54650000     -33.23650000     -69.43380000
C      -43.07750000     -32.61560000     -70.57020000
C      -42.75870000     -33.08310000     -71.85170000
C      -41.80820000     -34.06420000     -72.05250000
C      -41.16570000     -34.58750000     -70.89610000
H      -41.13230000     -34.66210000     -68.76130000
H      -43.91480000     -31.94830000     -70.50190000
H      -41.47700000     -34.33350000     -73.02060000
H      -40.42600000     -35.42420000     -71.01730000
C      -43.34450000     -32.30490000     -73.01130000
H      -42.48850000     -31.63680000     -73.30730000
H      -44.24730000     -31.75820000     -72.69140000
C      -42.94060000     -32.75870000     -68.01810000
H      -41.99870000     -32.79470000     -67.38750000
H      -43.35830000     -31.77560000     -68.07120000
S      -43.60610000     -33.32510000     -74.59580000
S      -44.21840000     -33.83120000     -67.17860000
C      -44.37120000     -34.89610000     -74.02030000
H      -44.94000000     -35.16010000     -74.96810000
H      -43.62620000     -35.67520000     -73.89020000
C      -45.74150000     -33.25650000     -68.11060000
H      -45.54680000     -32.28350000     -68.55090000
H      -46.64290000     -33.38900000     -67.48930000
C      -46.11770000     -34.19360000     -69.30310000
H      -45.27520000     -34.57220000     -69.93680000
H      -46.55870000     -35.04870000     -68.84010000
C      -45.24490000     -34.85480000     -72.77540000
H      -44.68450000     -34.52590000     -71.85020000
H      -45.62860000     -35.82640000     -72.62000000
C      -46.39530000     -33.92050000     -72.94390000
C      -47.02390000     -33.55340000     -74.12000000
C      -47.19980000     -33.48400000     -71.75510000
H      -46.73630000     -33.76450000     -75.11140000
C      -48.36710000     -32.76430000     -72.14540000
C      -47.17190000     -33.60270000     -70.29010000
C      -48.30850000     -33.11150000     -69.67160000
S      -48.47340000     -32.50960000     -73.88530000
S      -49.38750000     -32.27610000     -70.77970000
H      -48.62320000     -33.38510000     -68.69540000
