40
Properties=species:S:1:pos:R:3 #=T CELL(abcABC):=T 1.889726e+02=T 90.00000=T Traj:=T positionsangstrom=T Step:=T 0=T Bead:=T pbc="F F F"
C      -41.61600000     -34.38250000     -69.69640000
C      -42.42260000     -33.30040000     -69.35590000
C      -43.07530000     -32.63500000     -70.40160000
C      -42.87800000     -32.91580000     -71.74900000
C      -41.90100000     -33.90170000     -72.09370000
C      -41.31440000     -34.68450000     -71.08920000
H      -41.23770000     -35.06990000     -68.94950000
H      -43.69080000     -31.80110000     -70.06730000
H      -41.79280000     -33.99240000     -73.17530000
H      -40.67410000     -35.54630000     -71.26930000
C      -43.67690000     -32.25550000     -72.94060000
H      -43.45360000     -31.24650000     -73.19890000
H      -44.72460000     -32.12300000     -72.61340000
C      -42.82210000     -32.90480000     -67.95180000
H      -42.02690000     -33.20790000     -67.27930000
H      -42.95940000     -31.84900000     -67.81320000
S      -43.71870000     -33.19730000     -74.46760000
S      -44.27050000     -33.90670000     -67.31560000
C      -44.28330000     -34.93820000     -73.97180000
H      -44.91560000     -35.17760000     -74.79150000
H      -43.45010000     -35.65350000     -73.89960000
C      -45.84860000     -33.48980000     -68.19990000
H      -46.00660000     -32.36610000     -68.20480000
H      -46.58150000     -33.76370000     -67.52900000
C      -45.98280000     -34.09740000     -69.57290000
H      -45.10530000     -33.89330000     -70.16580000
H      -45.95540000     -35.25190000     -69.44810000
C      -45.21060000     -34.94330000     -72.68500000
H      -44.55200000     -34.64510000     -71.87960000
H      -45.52600000     -35.98310000     -72.40130000
C      -46.32930000     -33.93630000     -72.80680000
C      -46.86000000     -33.53750000     -74.03040000
C      -47.13740000     -33.43140000     -71.70970000
H      -46.50030000     -33.74990000     -75.01860000
C      -48.26470000     -32.75360000     -72.13360000
C      -47.19670000     -33.53270000     -70.28430000
C      -48.32120000     -32.99130000     -69.70110000
S      -48.28660000     -32.53030000     -73.85720000
S      -49.40530000     -32.25450000     -70.90130000
H      -48.51060000     -32.83000000     -68.70610000
