40
Properties=species:S:1:pos:R:3 #=T CELL(abcABC):=T 1.889726e+02=T 90.00000=T Traj:=T positionsangstrom=T Step:=T 0=T Bead:=T pbc="F F F"
C      -41.61980000     -34.31340000     -69.65800000
C      -42.59660000     -33.34810000     -69.33490000
C      -43.16160000     -32.69910000     -70.39660000
C      -42.76130000     -32.79980000     -71.72820000
C      -41.76730000     -33.72360000     -72.06630000
C      -41.26790000     -34.55110000     -71.02090000
H      -41.16100000     -34.78300000     -68.81080000
H      -44.00490000     -32.01240000     -70.16390000
H      -41.55560000     -33.91530000     -73.16090000
H      -40.42570000     -35.20250000     -71.11510000
C      -43.59470000     -32.10220000     -72.77420000
H      -43.18410000     -31.15350000     -73.11540000
H      -44.62530000     -31.93130000     -72.37230000
C      -42.89170000     -33.11830000     -67.91850000
H      -42.02960000     -33.27170000     -67.31690000
H      -43.18450000     -32.00120000     -67.78280000
S      -43.79980000     -33.09130000     -74.41280000
S      -44.23570000     -34.25350000     -67.23710000
C      -44.19590000     -34.82770000     -73.85240000
H      -44.37800000     -35.43990000     -74.70790000
H      -43.25960000     -35.31150000     -73.40690000
C      -45.66000000     -33.46290000     -68.15370000
H      -45.41640000     -32.37000000     -68.25080000
H      -46.43450000     -33.53980000     -67.37880000
C      -45.96000000     -34.16340000     -69.50030000
H      -45.07180000     -33.95690000     -70.00950000
H      -46.08700000     -35.23270000     -69.47970000
C      -45.29470000     -34.92490000     -72.76280000
H      -44.89000000     -34.67200000     -71.80940000
H      -45.73120000     -35.97820000     -72.58600000
C      -46.46280000     -33.99060000     -72.89840000
C      -46.96430000     -33.61120000     -74.09440000
C      -47.22230000     -33.47350000     -71.79100000
H      -46.57990000     -33.97660000     -75.06080000
C      -48.34520000     -32.80990000     -72.23400000
C      -47.11530000     -33.51570000     -70.32580000
C      -48.18530000     -32.83110000     -69.83390000
S      -48.38430000     -32.54690000     -73.94400000
S      -49.32980000     -32.16150000     -70.99130000
H      -48.34700000     -32.52780000     -68.84300000
