40
Properties=species:S:1:pos:R:3 #=T CELL(abcABC):=T 1.889726e+02=T 90.00000=T Traj:=T positionsangstrom=T Step:=T 0=T Bead:=T pbc="F F F"
C      -43.94560000     -35.15710000     -67.99770000
C      -43.29760000     -34.97290000     -69.21110000
C      -43.04030000     -33.69640000     -69.66510000
C      -43.50920000     -32.56640000     -68.99220000
C      -44.20580000     -32.77370000     -67.80070000
C      -44.45340000     -34.07750000     -67.33810000
H      -44.11450000     -36.13730000     -67.61490000
H      -42.48590000     -33.61060000     -70.60750000
H      -44.48490000     -31.95790000     -67.10150000
H      -44.88110000     -34.11150000     -66.31010000
C      -43.09670000     -31.19290000     -69.39430000
H      -42.06840000     -31.02540000     -69.75970000
H      -43.24820000     -30.45950000     -68.54660000
C      -42.75020000     -36.13100000     -69.98130000
H      -41.79150000     -35.90030000     -70.40490000
H      -42.81700000     -37.12440000     -69.38320000
S      -44.24510000     -30.63490000     -70.82550000
S      -43.88950000     -36.40720000     -71.49770000
C      -45.85640000     -30.44350000     -69.95120000
H      -45.67850000     -30.33750000     -68.90890000
H      -46.25380000     -29.41520000     -70.22570000
C      -45.58730000     -36.34950000     -70.79910000
H      -45.59530000     -36.88860000     -69.87810000
H      -46.12590000     -36.89530000     -71.63370000
C      -46.22950000     -34.98700000     -70.76530000
H      -47.19320000     -35.04910000     -70.20970000
H      -45.62240000     -34.27930000     -70.22100000
C      -46.76900000     -31.63790000     -70.35080000
H      -47.81220000     -31.39730000     -69.94400000
H      -46.48090000     -32.57020000     -69.82600000
C      -46.86690000     -31.89060000     -71.84990000
C      -47.00250000     -30.81610000     -72.69610000
C      -46.83330000     -33.15930000     -72.55020000
H      -46.88890000     -29.73620000     -72.44500000
C      -47.03730000     -32.97330000     -73.92420000
C      -46.48390000     -34.51180000     -72.19230000
C      -46.51580000     -35.29930000     -73.32420000
S      -47.22920000     -31.34490000     -74.33210000
S      -46.81400000     -34.40470000     -74.85590000
H      -46.19480000     -36.30900000     -73.39660000
