40
Properties=species:S:1:pos:R:3 #=T CELL(abcABC):=T 1.889726e+02=T 90.00000=T Traj:=T positionsangstrom=T Step:=T 0=T Bead:=T pbc="F F F"
C      -43.69950000     -32.46960000     -74.89180000
C      -44.18680000     -33.75790000     -74.60120000
C      -45.54640000     -33.99170000     -74.49400000
C      -46.50730000     -32.97340000     -74.53840000
C      -46.03010000     -31.64180000     -74.77120000
C      -44.62740000     -31.47040000     -74.96080000
H      -42.64720000     -32.20510000     -74.93740000
H      -45.80610000     -34.96300000     -74.13040000
H      -46.77010000     -30.86770000     -74.77180000
H      -44.21680000     -30.45270000     -75.10420000
C      -48.01670000     -33.19510000     -74.42480000
H      -48.30430000     -33.86440000     -75.28660000
H      -48.57580000     -32.28580000     -74.56680000
C      -43.26090000     -34.88440000     -74.20620000
H      -43.56180000     -35.90890000     -74.53670000
H      -42.31460000     -34.81020000     -74.71080000
S      -48.52120000     -34.19750000     -72.91040000
S      -42.91650000     -34.84890000     -72.32350000
C      -47.73000000     -33.22500000     -71.55500000
H      -46.81760000     -32.73620000     -71.92880000
H      -48.45420000     -32.39100000     -71.14180000
C      -44.47660000     -35.47130000     -71.55520000
H      -44.84430000     -36.37010000     -72.07650000
H      -45.27580000     -34.71220000     -71.79630000
C      -44.30690000     -35.63390000     -70.09380000
H      -45.26060000     -36.11790000     -69.78920000
H      -43.42740000     -36.25350000     -69.84940000
C      -47.38680000     -34.05560000     -70.35270000
H      -47.03700000     -35.04470000     -70.51670000
H      -48.27490000     -34.29340000     -69.74310000
C      -46.59290000     -33.17490000     -69.45190000
C      -47.14390000     -32.05510000     -68.80030000
C      -45.15370000     -33.26230000     -69.12680000
H      -48.21170000     -31.82230000     -68.83070000
C      -44.77880000     -32.33290000     -68.19920000
C      -44.11430000     -34.33960000     -69.32810000
C      -43.04690000     -34.06230000     -68.55190000
S      -46.08580000     -31.22970000     -67.71300000
S      -43.09590000     -32.54520000     -67.71830000
H      -42.27420000     -34.77870000     -68.42120000
