40
Properties=species:S:1:pos:R:3 #=T CELL(abcABC):=T 1.889726e+02=T 90.00000=T Traj:=T positionsangstrom=T Step:=T 0=T Bead:=T pbc="F F F"
C      -41.22430000     -34.18780000     -69.63750000
C      -42.41430000     -33.49950000     -69.37050000
C      -43.03840000     -32.79490000     -70.45130000
C      -42.57430000     -32.79090000     -71.76420000
C      -41.47790000     -33.58950000     -72.03800000
C      -40.77400000     -34.16450000     -71.00520000
H      -40.60620000     -34.59250000     -68.82780000
H      -43.97380000     -32.27300000     -70.21160000
H      -41.11990000     -33.63280000     -73.03070000
H      -39.86500000     -34.74030000     -71.22440000
C      -43.29580000     -31.94980000     -72.75730000
H      -42.73280000     -31.05730000     -72.91490000
H      -44.17350000     -31.54700000     -72.34540000
C      -43.02750000     -33.27430000     -67.98720000
H      -42.25000000     -33.35080000     -67.15130000
H      -43.51670000     -32.33040000     -67.97390000
S      -43.70780000     -32.75350000     -74.40630000
S      -44.27180000     -34.54820000     -67.52770000
C      -44.20080000     -34.41150000     -73.91210000
H      -44.54050000     -35.04780000     -74.76070000
H      -43.33840000     -34.94590000     -73.51540000
C      -45.85410000     -33.89110000     -68.15680000
H      -45.91850000     -32.80440000     -67.98460000
H      -46.55720000     -34.24570000     -67.40390000
C      -46.07310000     -34.31420000     -69.59300000
H      -45.12980000     -33.97860000     -70.14400000
H      -46.08220000     -35.39460000     -69.74460000
C      -45.18420000     -34.55680000     -72.79370000
H      -44.74420000     -34.09690000     -71.84880000
H      -45.19910000     -35.63970000     -72.50020000
C      -46.67770000     -34.14180000     -72.88400000
C      -47.42000000     -33.99540000     -74.08280000
C      -47.39990000     -33.55630000     -71.74980000
H      -47.10020000     -34.18210000     -75.11830000
C      -48.51880000     -32.77880000     -72.11780000
C      -47.18890000     -33.51580000     -70.29040000
C      -48.08200000     -32.64070000     -69.68280000
S      -48.82740000     -32.98580000     -73.85980000
S      -49.22210000     -31.87280000     -70.82050000
H      -48.26330000     -32.54720000     -68.57700000
