40
Properties=species:S:1:pos:R:3 #=T CELL(abcABC):=T 1.889726e+02=T 90.00000=T Traj:=T positionsangstrom=T Step:=T 0=T Bead:=T pbc="F F F"
C      -43.73340000     -32.45550000     -74.80780000
C      -44.25000000     -33.73590000     -74.58450000
C      -45.60600000     -33.94240000     -74.44270000
C      -46.58070000     -32.90090000     -74.60600000
C      -46.03400000     -31.59750000     -74.92540000
C      -44.64760000     -31.42790000     -75.00580000
H      -42.67760000     -32.28900000     -74.89620000
H      -45.91530000     -34.96160000     -74.36050000
H      -46.76930000     -30.77190000     -75.03110000
H      -44.14980000     -30.49300000     -75.20880000
C      -48.07040000     -33.12980000     -74.38380000
H      -48.64460000     -33.53120000     -75.16940000
H      -48.53490000     -32.18820000     -74.04390000
C      -43.30010000     -34.91100000     -74.23340000
H      -43.87690000     -35.84050000     -74.16650000
H      -42.34990000     -34.88990000     -74.74570000
S      -48.26660000     -34.30050000     -72.97600000
S      -42.79870000     -34.90720000     -72.39650000
C      -47.96470000     -33.17520000     -71.50640000
H      -47.13350000     -32.52970000     -71.77590000
H      -48.83240000     -32.59460000     -71.24100000
C      -44.37260000     -35.41190000     -71.70670000
H      -44.72380000     -36.32080000     -72.14820000
H      -45.05840000     -34.60860000     -72.03660000
C      -44.32520000     -35.59860000     -70.21420000
H      -45.12760000     -36.25100000     -69.81470000
H      -43.44520000     -36.19770000     -70.01250000
C      -47.50730000     -33.97140000     -70.25610000
H      -46.74640000     -34.76570000     -70.64900000
H      -48.36790000     -34.70870000     -69.84150000
C      -46.68230000     -33.16660000     -69.29250000
C      -47.24340000     -32.13420000     -68.52240000
C      -45.29290000     -33.39990000     -68.96840000
H      -48.21360000     -31.65520000     -68.62110000
C      -44.86170000     -32.49080000     -68.05990000
C      -44.20930000     -34.27590000     -69.40910000
C      -42.99620000     -33.95530000     -68.83470000
S      -46.01440000     -31.21060000     -67.63270000
S      -43.11660000     -32.54070000     -67.70370000
H      -42.19480000     -34.66830000     -68.70010000
