40
Properties=species:S:1:pos:R:3 #=T CELL(abcABC):=T 1.889726e+02=T 90.00000=T Traj:=T positionsangstrom=T Step:=T 0=T Bead:=T pbc="F F F"
C      -44.40050000     -29.17420000     -72.25260000
C      -43.52140000     -30.23270000     -71.78380000
C      -43.79940000     -30.90320000     -70.62270000
C      -44.87970000     -30.46340000     -69.74700000
C      -45.66940000     -29.36610000     -70.15850000
C      -45.39420000     -28.77710000     -71.36690000
H      -44.25370000     -28.56860000     -73.13250000
H      -43.05590000     -31.70960000     -70.28070000
H      -46.41680000     -29.00580000     -69.52620000
H      -46.02210000     -27.98700000     -71.72580000
C      -45.19060000     -31.03050000     -68.43510000
H      -46.27080000     -31.10020000     -68.32120000
H      -45.00410000     -30.25480000     -67.60970000
C      -42.45370000     -30.71170000     -72.66810000
H      -41.81480000     -29.96280000     -73.10660000
H      -41.73660000     -31.38760000     -72.23530000
S      -44.47450000     -32.69250000     -68.03490000
S      -43.29420000     -31.69960000     -74.03810000
C      -45.43700000     -33.74850000     -69.09010000
H      -46.16320000     -34.31530000     -68.45120000
H      -46.08040000     -33.27320000     -69.77740000
C      -44.00180000     -33.22880000     -73.19490000
H      -43.38640000     -33.38290000     -72.26540000
H      -43.82100000     -34.12800000     -73.84570000
C      -45.44240000     -33.13000000     -72.74100000
H      -45.54580000     -32.39400000     -71.88920000
H      -45.96700000     -32.62060000     -73.55690000
C      -44.53400000     -34.69920000     -69.78860000
H      -43.78770000     -35.15990000     -69.08480000
H      -43.97780000     -34.03360000     -70.47810000
C      -45.33940000     -35.75340000     -70.41900000
C      -45.64770000     -36.94220000     -69.79570000
C      -46.13560000     -35.50560000     -71.57030000
H      -44.95160000     -37.51250000     -69.07020000
C      -46.97390000     -36.57900000     -71.88250000
C      -46.23960000     -34.45920000     -72.57810000
C      -47.16400000     -34.78670000     -73.55990000
S      -47.03940000     -37.68180000     -70.61410000
S      -47.96470000     -36.34320000     -73.30270000
H      -47.52210000     -34.08000000     -74.34800000
