40
Properties=species:S:1:pos:R:3 #=T CELL(abcABC):=T 1.889726e+02=T 90.00000=T Traj:=T positionsangstrom=T Step:=T 0=T Bead:=T pbc="F F F"
C      -43.84480000     -32.36090000     -74.65840000
C      -44.20520000     -33.74490000     -74.56050000
C      -45.54940000     -34.09870000     -74.66380000
C      -46.56190000     -33.11520000     -74.67970000
C      -46.22080000     -31.73020000     -74.62160000
C      -44.88190000     -31.34910000     -74.63240000
H      -42.91550000     -31.91000000     -74.32130000
H      -45.88320000     -35.05440000     -74.49180000
H      -47.06960000     -31.04590000     -74.57490000
H      -44.52240000     -30.30240000     -74.47770000
C      -47.94710000     -33.61050000     -74.60090000
H      -48.23120000     -34.33480000     -75.35060000
H      -48.73370000     -32.81200000     -74.73910000
C      -43.19630000     -34.80210000     -74.14510000
H      -43.49200000     -35.83800000     -74.45750000
H      -42.23420000     -34.64170000     -74.73960000
S      -48.24220000     -34.36890000     -72.93020000
S      -42.65940000     -34.77490000     -72.33500000
C      -47.56300000     -33.21400000     -71.64210000
H      -46.52240000     -32.87160000     -72.00430000
H      -48.23060000     -32.28930000     -71.64700000
C      -44.27620000     -35.61340000     -71.74840000
H      -44.22980000     -36.71290000     -71.94760000
H      -45.12850000     -35.16590000     -72.24330000
C      -44.41280000     -35.49690000     -70.21640000
H      -45.36000000     -36.01920000     -69.91720000
H      -43.55650000     -36.09430000     -69.86350000
C      -47.52820000     -33.93940000     -70.31610000
H      -47.07060000     -34.84300000     -70.60660000
H      -48.60140000     -34.06770000     -70.02420000
C      -46.74920000     -33.17750000     -69.24320000
C      -47.32330000     -32.19030000     -68.42280000
C      -45.34780000     -33.28850000     -69.04710000
H      -48.30490000     -31.96620000     -68.17980000
C      -44.88420000     -32.31190000     -68.18860000
C      -44.29490000     -34.11860000     -69.53340000
C      -43.08490000     -33.74970000     -69.07910000
S      -46.11200000     -31.36610000     -67.40040000
S      -43.12660000     -32.33330000     -67.94700000
H      -42.14730000     -34.22810000     -69.07810000
