40
Properties=species:S:1:pos:R:3 #=T CELL(abcABC):=T 1.889726e+02=T 90.00000=T Traj:=T positionsangstrom=T Step:=T 0=T Bead:=T pbc="F F F"
C      -43.85070000     -32.37840000     -74.42650000
C      -44.18650000     -33.74910000     -74.51760000
C      -45.53010000     -34.12320000     -74.47490000
C      -46.50720000     -33.14810000     -74.57460000
C      -46.18110000     -31.79700000     -74.71300000
C      -44.81910000     -31.38270000     -74.51610000
H      -42.86300000     -32.06060000     -74.65510000
H      -45.89360000     -35.13450000     -74.46960000
H      -46.95190000     -31.05130000     -74.93770000
H      -44.45650000     -30.39840000     -74.47080000
C      -47.94890000     -33.58050000     -74.46490000
H      -48.20420000     -34.33250000     -75.27450000
H      -48.59610000     -32.73560000     -74.58670000
C      -42.98080000     -34.70150000     -74.20680000
H      -43.10290000     -35.70060000     -74.54010000
H      -42.14150000     -34.30960000     -74.77000000
S      -48.36790000     -34.57900000     -72.90790000
S      -42.76650000     -34.63200000     -72.35260000
C      -47.58620000     -33.39770000     -71.63310000
H      -46.57200000     -33.27940000     -71.95140000
H      -48.00200000     -32.40650000     -71.68220000
C      -44.31030000     -35.50510000     -71.77840000
H      -44.28610000     -36.53430000     -72.16180000
H      -45.15590000     -35.11850000     -72.30330000
C      -44.42110000     -35.44960000     -70.22910000
H      -45.38060000     -35.92860000     -69.96920000
H      -43.54720000     -35.91640000     -69.80310000
C      -47.62710000     -33.98420000     -70.24680000
H      -47.30370000     -34.97690000     -70.32520000
H      -48.63260000     -33.87720000     -69.75680000
C      -46.75340000     -33.22200000     -69.30660000
C      -47.30460000     -32.24290000     -68.48830000
C      -45.30330000     -33.23130000     -69.11220000
H      -48.37440000     -31.93840000     -68.46270000
C      -44.82580000     -32.27560000     -68.16090000
C      -44.25120000     -34.11770000     -69.53690000
C      -43.07700000     -33.72830000     -69.01880000
S      -46.10060000     -31.30170000     -67.56830000
S      -43.07870000     -32.30150000     -67.98550000
H      -42.10660000     -34.19750000     -69.20740000
