40
Properties=species:S:1:pos:R:3 #=T CELL(abcABC):=T 1.889726e+02=T 90.00000=T Traj:=T positionsangstrom=T Step:=T 0=T Bead:=T pbc="F F F"
C      -43.84480000     -32.26260000     -74.47260000
C      -44.10670000     -33.63040000     -74.51080000
C      -45.43110000     -34.07180000     -74.49100000
C      -46.45930000     -33.12250000     -74.67860000
C      -46.17430000     -31.79580000     -74.96410000
C      -44.85280000     -31.38510000     -74.85240000
H      -42.74120000     -31.97690000     -74.40670000
H      -45.71760000     -35.08700000     -74.59470000
H      -47.00470000     -31.12140000     -75.01290000
H      -44.67890000     -30.29330000     -75.01250000
C      -47.92520000     -33.48120000     -74.45520000
H      -48.25700000     -34.16020000     -75.21700000
H      -48.53530000     -32.58330000     -74.40100000
C      -43.08840000     -34.70450000     -74.24690000
H      -43.60900000     -35.62600000     -74.45620000
H      -42.15520000     -34.55250000     -74.66560000
S      -48.32590000     -34.30270000     -72.89270000
S      -42.74700000     -34.89190000     -72.40960000
C      -47.51950000     -33.22180000     -71.64680000
H      -46.53500000     -33.05550000     -71.84470000
H      -48.01710000     -32.25020000     -71.69920000
C      -44.36970000     -35.42680000     -71.74410000
H      -44.64920000     -36.33860000     -72.23200000
H      -45.12230000     -34.65800000     -72.09690000
C      -44.40790000     -35.53830000     -70.26340000
H      -45.33320000     -36.02130000     -70.02550000
H      -43.72970000     -36.31890000     -69.86280000
C      -47.61960000     -33.90300000     -70.27070000
H      -47.68570000     -35.04050000     -70.34580000
H      -48.65050000     -33.86430000     -69.87140000
C      -46.77600000     -33.25870000     -69.21220000
C      -47.30750000     -32.25490000     -68.40310000
C      -45.31830000     -33.38950000     -68.94470000
H      -48.35830000     -32.00030000     -68.48170000
C      -44.85280000     -32.32390000     -68.13030000
C      -44.21680000     -34.28160000     -69.40310000
C      -43.04740000     -33.75000000     -68.99800000
S      -46.13000000     -31.39350000     -67.44550000
S      -43.12500000     -32.33050000     -67.95780000
H      -42.08080000     -34.15320000     -69.19340000
