40
Properties=species:S:1:pos:R:3 #=T CELL(abcABC):=T 1.889726e+02=T 90.00000=T Traj:=T positionsangstrom=T Step:=T 0=T Bead:=T pbc="F F F"
C      -43.97150000     -32.73310000     -74.71630000
C      -44.21940000     -34.05530000     -74.58660000
C      -45.59780000     -34.46350000     -74.45700000
C      -46.58640000     -33.51410000     -74.26880000
C      -46.26970000     -32.11650000     -74.46190000
C      -44.94990000     -31.78410000     -74.68260000
H      -42.96450000     -32.32820000     -74.95600000
H      -45.65420000     -35.54850000     -74.26740000
H      -47.04420000     -31.36620000     -74.36190000
H      -44.69730000     -30.77030000     -74.88020000
C      -48.02520000     -33.88330000     -74.02950000
H      -48.45060000     -34.54850000     -74.82170000
H      -48.52030000     -32.90430000     -74.11270000
C      -43.09780000     -34.96950000     -74.27000000
H      -43.36800000     -35.91250000     -74.85230000
H      -42.16000000     -34.69070000     -74.76170000
S      -48.40610000     -34.69580000     -72.43930000
S      -42.90300000     -35.14900000     -72.50500000
C      -47.55640000     -33.51440000     -71.30280000
H      -46.56990000     -33.36060000     -71.70170000
H      -48.14120000     -32.61760000     -71.38690000
C      -44.52810000     -35.50600000     -71.60040000
H      -44.79490000     -36.53410000     -71.72060000
H      -45.35260000     -34.91110000     -72.00570000
C      -44.31510000     -35.26630000     -70.09020000
H      -45.19100000     -35.64900000     -69.63920000
H      -43.57730000     -35.90930000     -69.70080000
C      -47.50460000     -33.96610000     -69.86000000
H      -47.19920000     -35.03520000     -69.80750000
H      -48.50050000     -33.85100000     -69.49250000
C      -46.63610000     -33.04650000     -69.04880000
C      -47.22680000     -32.01770000     -68.35990000
C      -45.21060000     -33.01080000     -69.10140000
H      -48.27600000     -31.82260000     -68.33110000
C      -44.71740000     -31.90690000     -68.40280000
C      -44.12920000     -33.82260000     -69.67660000
C      -42.87670000     -33.27300000     -69.43990000
S      -46.00960000     -30.92570000     -67.75690000
S      -42.98780000     -31.68270000     -68.59830000
H      -41.88130000     -33.67210000     -69.60310000
