40
Properties=species:S:1:pos:R:3 #=T CELL(abcABC):=T 1.889726e+02=T 90.00000=T Traj:=T positionsangstrom=T Step:=T 0=T Bead:=T pbc="F F F"
C      -44.22890000     -32.28270000     -74.57220000
C      -44.31360000     -33.63720000     -74.31300000
C      -45.63550000     -34.18860000     -74.36340000
C      -46.78080000     -33.45600000     -74.55710000
C      -46.63840000     -32.06190000     -74.78760000
C      -45.36940000     -31.43080000     -74.79180000
H      -43.27800000     -31.74650000     -74.57900000
H      -45.75950000     -35.23590000     -74.14760000
H      -47.52200000     -31.37000000     -74.90000000
H      -45.37170000     -30.38340000     -75.07400000
C      -48.10010000     -34.15080000     -74.41130000
H      -47.97770000     -34.98420000     -75.13120000
H      -49.02660000     -33.61970000     -74.66870000
C      -43.13800000     -34.46620000     -74.00000000
H      -43.38380000     -35.47820000     -74.30180000
H      -42.32950000     -34.13730000     -74.63080000
S      -48.48270000     -34.86130000     -72.74610000
S      -42.73420000     -34.57310000     -72.18710000
C      -47.78560000     -33.59190000     -71.54860000
H      -46.88640000     -33.17430000     -71.99230000
H      -48.66090000     -32.90240000     -71.39220000
C      -44.24150000     -35.51380000     -71.65140000
H      -44.25040000     -36.55110000     -72.11290000
H      -45.11480000     -35.04170000     -72.07630000
C      -44.21880000     -35.55490000     -70.08500000
H      -44.96420000     -36.20420000     -69.65190000
H      -43.31720000     -36.18500000     -69.88870000
C      -47.43670000     -34.05810000     -70.10150000
H      -46.81010000     -34.98420000     -70.23010000
H      -48.29710000     -34.24770000     -69.43330000
C      -46.54500000     -33.02010000     -69.40690000
C      -47.08380000     -31.89080000     -68.84280000
C      -45.13410000     -33.16710000     -69.10500000
H      -48.07490000     -31.46160000     -68.94450000
C      -44.61500000     -32.10700000     -68.40630000
C      -44.13930000     -34.22580000     -69.30150000
C      -42.93240000     -33.79640000     -68.77410000
S      -45.80440000     -30.86420000     -68.04150000
S      -42.92080000     -32.22880000     -68.02550000
H      -41.97270000     -34.33800000     -68.86120000
