40
Properties=species:S:1:pos:R:3 #=T CELL(abcABC):=T 1.889726e+02=T 90.00000=T Traj:=T positionsangstrom=T Step:=T 0=T Bead:=T pbc="F F F"
C      -44.34650000     -32.10020000     -74.45320000
C      -44.34740000     -33.41850000     -74.13050000
C      -45.54420000     -34.13690000     -74.15160000
C      -46.75870000     -33.51510000     -74.44060000
C      -46.73300000     -32.15610000     -74.76170000
C      -45.51580000     -31.43740000     -74.71410000
H      -43.44110000     -31.58470000     -74.40360000
H      -45.52740000     -35.23550000     -73.96320000
H      -47.79040000     -31.75390000     -74.86230000
H      -45.57740000     -30.33450000     -74.92350000
C      -48.12130000     -34.20330000     -74.44550000
H      -48.14700000     -34.98510000     -75.20710000
H      -48.86680000     -33.42960000     -74.62840000
C      -42.99200000     -34.10280000     -73.93040000
H      -43.12000000     -35.06500000     -74.47460000
H      -42.08460000     -33.58110000     -74.28710000
S      -48.58610000     -34.91720000     -72.76940000
S      -42.68070000     -34.39380000     -72.13470000
C      -47.97330000     -33.49570000     -71.64200000
H      -47.36270000     -32.75330000     -72.10360000
H      -48.82940000     -32.88700000     -71.31710000
C      -44.05210000     -35.46900000     -71.57680000
H      -43.83480000     -36.45600000     -72.02310000
H      -44.98770000     -35.09520000     -71.89830000
C      -44.03350000     -35.60890000     -70.01900000
H      -44.85360000     -36.25960000     -69.67000000
H      -43.11460000     -36.04700000     -69.72480000
C      -47.19940000     -34.13370000     -70.48290000
H      -46.67320000     -34.99720000     -70.81750000
H      -47.94090000     -34.62520000     -69.83810000
C      -46.48050000     -33.03860000     -69.73570000
C      -46.96240000     -31.87830000     -69.30180000
C      -45.14710000     -33.30240000     -69.17070000
H      -47.93920000     -31.51410000     -69.45380000
C      -44.67100000     -32.25080000     -68.36790000
C      -44.06810000     -34.28390000     -69.25800000
C      -42.95410000     -33.95220000     -68.51620000
S      -45.79760000     -30.94870000     -68.36310000
S      -43.06470000     -32.33620000     -67.70930000
H      -42.15610000     -34.64640000     -68.22790000
