40
Properties=species:S:1:pos:R:3 #=T CELL(abcABC):=T 1.889726e+02=T 90.00000=T Traj:=T positionsangstrom=T Step:=T 0=T Bead:=T pbc="F F F"
C      -44.33610000     -32.23930000     -74.62650000
C      -44.37410000     -33.61010000     -74.36630000
C      -45.55960000     -34.24630000     -74.47140000
C      -46.73980000     -33.50420000     -74.51070000
C      -46.72300000     -32.11010000     -74.58550000
C      -45.47680000     -31.48270000     -74.67730000
H      -43.31180000     -31.77000000     -74.56170000
H      -45.59740000     -35.30030000     -74.47500000
H      -47.60480000     -31.48180000     -74.59330000
H      -45.51760000     -30.39530000     -74.73690000
C      -48.14850000     -34.17490000     -74.41650000
H      -48.21140000     -34.93020000     -75.17940000
H      -48.92730000     -33.40840000     -74.57150000
C      -43.13710000     -34.40030000     -74.02550000
H      -43.21010000     -35.49700000     -74.28370000
H      -42.23440000     -33.95970000     -74.50110000
S      -48.33770000     -34.87340000     -72.71710000
S      -42.84960000     -34.34050000     -72.23480000
C      -47.91560000     -33.53610000     -71.57860000
H      -47.19470000     -32.87420000     -72.07390000
H      -48.75620000     -32.85390000     -71.40500000
C      -44.24850000     -35.33250000     -71.51170000
H      -44.25960000     -36.33570000     -71.91860000
H      -45.13440000     -34.77410000     -71.84650000
C      -44.14620000     -35.54750000     -70.03040000
H      -45.07240000     -36.17620000     -69.73220000
H      -43.24960000     -36.13880000     -69.98920000
C      -47.24820000     -34.13430000     -70.33030000
H      -46.59340000     -34.94560000     -70.65350000
H      -48.02700000     -34.51050000     -69.61580000
C      -46.39220000     -33.10480000     -69.64120000
C      -46.91880000     -31.90120000     -69.26060000
C      -45.05040000     -33.24570000     -69.09090000
H      -47.94510000     -31.55650000     -69.48380000
C      -44.60670000     -32.12890000     -68.37270000
C      -44.05850000     -34.31040000     -69.17610000
C      -42.90990000     -33.85190000     -68.55580000
S      -45.88090000     -30.92190000     -68.28630000
S      -43.00570000     -32.31200000     -67.68320000
H      -42.08450000     -34.55500000     -68.41320000
