40
Properties=species:S:1:pos:R:3 #=T CELL(abcABC):=T 1.889726e+02=T 90.00000=T Traj:=T positionsangstrom=T Step:=T 0=T Bead:=T pbc="F F F"
C      -44.29590000     -32.13600000     -74.26400000
C      -44.30610000     -33.48880000     -74.03860000
C      -45.52150000     -34.14230000     -74.15610000
C      -46.71590000     -33.44220000     -74.56050000
C      -46.69660000     -32.00550000     -74.66230000
C      -45.46750000     -31.41030000     -74.58420000
H      -43.35790000     -31.52310000     -74.06800000
H      -45.52990000     -35.20510000     -74.22120000
H      -47.64470000     -31.53850000     -74.73920000
H      -45.48350000     -30.33480000     -74.64410000
C      -48.04850000     -34.17750000     -74.55130000
H      -48.04180000     -35.09790000     -75.14440000
H      -48.92630000     -33.65740000     -74.95460000
C      -42.99790000     -34.18970000     -73.88780000
H      -42.97720000     -35.21480000     -74.33640000
H      -42.26060000     -33.53830000     -74.38120000
S      -48.61510000     -34.75240000     -72.83170000
S      -42.74490000     -34.41040000     -72.07950000
C      -47.90900000     -33.40070000     -71.69030000
H      -47.39230000     -32.63720000     -72.27970000
H      -48.73340000     -32.86740000     -71.29470000
C      -44.07850000     -35.66340000     -71.52540000
H      -43.83370000     -36.60940000     -71.89390000
H      -45.05960000     -35.41180000     -71.95100000
C      -44.08340000     -35.73460000     -69.96580000
H      -44.93890000     -36.23850000     -69.61470000
H      -43.23990000     -36.27440000     -69.61540000
C      -47.14530000     -34.12300000     -70.52840000
H      -46.45760000     -34.84200000     -70.95240000
H      -47.91540000     -34.81930000     -70.09160000
C      -46.51220000     -33.15760000     -69.60340000
C      -47.06210000     -31.96000000     -69.21670000
C      -45.14900000     -33.35550000     -69.11690000
H      -48.12030000     -31.56690000     -69.25840000
C      -44.68600000     -32.20160000     -68.42080000
C      -44.06130000     -34.35460000     -69.28670000
C      -42.86200000     -33.90180000     -68.74420000
S      -45.94790000     -31.01470000     -68.15140000
S      -42.94650000     -32.26310000     -68.01510000
H      -41.94430000     -34.50470000     -68.68010000
