40
Properties=species:S:1:pos:R:3 #=T CELL(abcABC):=T 1.889726e+02=T 90.00000=T Traj:=T positionsangstrom=T Step:=T 0=T Bead:=T pbc="F F F"
C      -44.40120000     -33.97750000     -67.15500000
C      -45.38610000     -34.50810000     -68.05440000
C      -46.51630000     -33.78340000     -68.25200000
C      -46.61080000     -32.49130000     -67.72110000
C      -45.63590000     -32.00040000     -66.86920000
C      -44.51420000     -32.73800000     -66.59780000
H      -43.45860000     -34.57490000     -67.05740000
H      -47.22420000     -34.07340000     -68.97950000
H      -45.71920000     -30.94510000     -66.57000000
H      -43.74770000     -32.31280000     -65.88780000
C      -47.66100000     -31.54080000     -68.14210000
H      -47.41010000     -30.50260000     -67.92060000
H      -48.57780000     -31.66950000     -67.49370000
C      -45.01910000     -35.81590000     -68.81110000
H      -44.15010000     -36.29270000     -68.29400000
H      -45.82590000     -36.55170000     -68.94650000
S      -48.24910000     -31.49060000     -69.89600000
S      -44.33860000     -35.56500000     -70.54710000
C      -46.76420000     -31.20520000     -70.98660000
H      -46.63690000     -30.15090000     -71.30640000
H      -45.81090000     -31.40780000     -70.50510000
C      -45.66200000     -36.48610000     -71.53380000
H      -46.47440000     -36.44860000     -70.83010000
H      -45.28430000     -37.44330000     -71.71180000
C      -46.13680000     -35.54710000     -72.67500000
H      -46.79780000     -36.16950000     -73.28330000
H      -46.78290000     -34.77940000     -72.23560000
C      -46.92190000     -32.13170000     -72.24950000
H      -47.80410000     -31.81750000     -72.83400000
H      -47.14240000     -33.07140000     -71.92580000
C      -45.66160000     -32.26350000     -73.13870000
C      -45.03030000     -31.14510000     -73.57290000
C      -45.00040000     -33.43880000     -73.65630000
H      -45.22750000     -30.10770000     -73.36500000
C      -43.95690000     -33.08470000     -74.53730000
C      -45.03530000     -34.82950000     -73.54570000
C      -44.02260000     -35.49010000     -74.18260000
S      -43.65300000     -31.36660000     -74.64570000
S      -42.95360000     -34.37820000     -75.12190000
H      -43.64760000     -36.50290000     -74.11660000
