40
Properties=species:S:1:pos:R:3 #=T CELL(abcABC):=T 1.889726e+02=T 90.00000=T Traj:=T positionsangstrom=T Step:=T 0=T Bead:=T pbc="F F F"
C      -43.87410000     -32.47660000     -74.71020000
C      -44.06700000     -33.80560000     -74.31780000
C      -45.34850000     -34.35730000     -74.21120000
C      -46.46810000     -33.64780000     -74.67310000
C      -46.27580000     -32.31540000     -75.12830000
C      -44.98170000     -31.74980000     -75.19080000
H      -42.93270000     -31.97010000     -74.79390000
H      -45.49770000     -35.40150000     -73.87560000
H      -47.13870000     -31.76480000     -75.34490000
H      -44.84170000     -30.72390000     -75.58500000
C      -47.90220000     -34.19910000     -74.68050000
H      -47.79860000     -35.20380000     -75.20640000
H      -48.51910000     -33.56340000     -75.38650000
C      -42.84400000     -34.55930000     -73.74790000
H      -42.64740000     -35.44640000     -74.41670000
H      -41.98940000     -33.87960000     -73.90550000
S      -48.72040000     -34.40740000     -72.95370000
S      -42.72090000     -34.90980000     -71.91720000
C      -47.61330000     -33.37580000     -71.92950000
H      -46.59070000     -33.37820000     -72.35520000
H      -47.98490000     -32.39180000     -72.10650000
C      -44.40060000     -35.42920000     -71.31520000
H      -44.63810000     -36.34860000     -71.74870000
H      -45.14070000     -34.74930000     -71.59820000
C      -44.35970000     -35.50050000     -69.78170000
H      -45.20630000     -36.03650000     -69.37920000
H      -43.55320000     -36.18260000     -69.50710000
C      -47.53090000     -33.87680000     -70.43890000
H      -47.15450000     -34.89330000     -70.53430000
H      -48.49910000     -33.85010000     -69.92850000
C      -46.62390000     -32.97540000     -69.61120000
C      -47.11940000     -31.79200000     -69.07760000
C      -45.24230000     -33.12900000     -69.12710000
H      -48.15760000     -31.35510000     -69.13790000
C      -44.79490000     -32.02170000     -68.34270000
C      -44.22370000     -34.13070000     -69.14090000
C      -43.10550000     -33.78070000     -68.40490000
S      -45.99240000     -30.78330000     -68.10800000
S      -43.17120000     -32.24690000     -67.68520000
H      -42.22510000     -34.40470000     -68.24300000
