40
Properties=species:S:1:pos:R:3 #=T CELL(abcABC):=T 1.889726e+02=T 90.00000=T Traj:=T positionsangstrom=T Step:=T 0=T Bead:=T pbc="F F F"
C      -43.81820000     -32.95490000     -74.44030000
C      -44.31960000     -34.28590000     -74.62190000
C      -45.64390000     -34.60450000     -74.60280000
C      -46.64160000     -33.51160000     -74.52440000
C      -46.17550000     -32.24650000     -74.50570000
C      -44.79770000     -31.95570000     -74.55780000
H      -42.77930000     -32.70730000     -74.30800000
H      -45.94750000     -35.62390000     -74.68120000
H      -46.89070000     -31.41860000     -74.47150000
H      -44.61500000     -30.85630000     -74.66070000
C      -48.03800000     -33.83680000     -74.16250000
H      -48.37990000     -34.64020000     -74.82260000
H      -48.73290000     -32.96400000     -74.30700000
C      -43.33700000     -35.39010000     -74.35650000
H      -43.70840000     -36.37110000     -74.61100000
H      -42.39690000     -35.22830000     -74.89070000
S      -48.19960000     -34.64630000     -72.50890000
S      -42.74840000     -35.29770000     -72.51180000
C      -47.82180000     -33.32940000     -71.24570000
H      -46.92490000     -32.84270000     -71.57240000
H      -48.58780000     -32.61290000     -71.31120000
C      -44.38710000     -35.21660000     -71.76230000
H      -44.91390000     -36.14070000     -72.00670000
H      -44.90830000     -34.40350000     -72.20450000
C      -44.31050000     -35.16470000     -70.22960000
H      -45.20730000     -35.67230000     -69.85690000
H      -43.46490000     -35.85010000     -70.03840000
C      -47.63130000     -33.90020000     -69.80950000
H      -47.25950000     -34.93530000     -69.78250000
H      -48.61490000     -33.96190000     -69.35480000
C      -46.73410000     -32.96660000     -69.03610000
C      -47.22430000     -31.96740000     -68.20230000
C      -45.26240000     -32.91370000     -69.15170000
H      -48.26370000     -31.78620000     -67.89290000
C      -44.78920000     -31.76420000     -68.50360000
C      -44.16990000     -33.75010000     -69.55970000
C      -42.96010000     -33.09390000     -69.46570000
S      -46.00180000     -30.94250000     -67.50560000
S      -43.07260000     -31.56580000     -68.61890000
H      -42.11440000     -33.40650000     -69.98140000
