40
Properties=species:S:1:pos:R:3 #=T CELL(abcABC):=T 1.889726e+02=T 90.00000=T Traj:=T positionsangstrom=T Step:=T 0=T Bead:=T pbc="F F F"
C      -43.84550000     -32.80710000     -74.89460000
C      -44.18850000     -34.18010000     -74.68420000
C      -45.55140000     -34.55540000     -74.48000000
C      -46.54310000     -33.58360000     -74.31210000
C      -46.17640000     -32.21030000     -74.48080000
C      -44.90480000     -31.82280000     -74.74180000
H      -42.86380000     -32.54970000     -75.07810000
H      -45.85000000     -35.58680000     -74.23260000
H      -46.89650000     -31.42270000     -74.27330000
H      -44.65190000     -30.78930000     -74.87090000
C      -48.03230000     -33.97480000     -74.20470000
H      -48.33110000     -34.68370000     -74.97250000
H      -48.63650000     -33.08790000     -74.28660000
C      -43.12120000     -35.20100000     -74.38110000
H      -43.43960000     -36.17110000     -74.77350000
H      -42.13830000     -35.02310000     -74.90000000
S      -48.39820000     -34.56690000     -72.47960000
S      -42.81040000     -35.35010000     -72.54630000
C      -47.54830000     -33.32860000     -71.44770000
H      -46.52410000     -33.18040000     -71.91460000
H      -48.12900000     -32.31980000     -71.47330000
C      -44.46900000     -35.40900000     -71.67640000
H      -44.90360000     -36.40050000     -71.89410000
H      -45.12480000     -34.63010000     -72.13830000
C      -44.33880000     -35.16390000     -70.19480000
H      -45.15170000     -35.65090000     -69.62650000
H      -43.48350000     -35.66770000     -69.82250000
C      -47.49320000     -33.93060000     -69.95190000
H      -46.99410000     -34.87780000     -70.08080000
H      -48.50720000     -34.07160000     -69.56630000
C      -46.65860000     -33.01640000     -69.11350000
C      -47.25960000     -32.17020000     -68.22630000
C      -45.19060000     -32.92630000     -69.03380000
H      -48.34380000     -32.08910000     -68.02980000
C      -44.79020000     -31.80300000     -68.29550000
C      -44.12510000     -33.67960000     -69.64580000
C      -42.92360000     -33.01580000     -69.48350000
S      -46.14050000     -30.94670000     -67.52040000
S      -43.06640000     -31.61090000     -68.37370000
H      -41.98650000     -33.39550000     -69.89830000
