40
Properties=species:S:1:pos:R:3 #=T CELL(abcABC):=T 1.889726e+02=T 90.00000=T Traj:=T positionsangstrom=T Step:=T 0=T Bead:=T pbc="F F F"
C      -43.88580000     -32.40040000     -74.47310000
C      -44.09250000     -33.74420000     -74.19920000
C      -45.35310000     -34.32270000     -74.44080000
C      -46.46710000     -33.54100000     -74.76700000
C      -46.20910000     -32.18770000     -74.94980000
C      -44.97460000     -31.62060000     -74.87310000
H      -42.89820000     -32.08840000     -74.21220000
H      -45.47760000     -35.39490000     -74.17750000
H      -47.07900000     -31.65770000     -75.35210000
H      -44.87720000     -30.56440000     -75.08030000
C      -47.85910000     -34.12170000     -74.51120000
H      -48.11130000     -34.99680000     -75.18830000
H      -48.63130000     -33.24240000     -74.67190000
C      -42.83800000     -34.54270000     -73.86790000
H      -42.81170000     -35.38100000     -74.50030000
H      -41.98170000     -33.88060000     -74.00940000
S      -48.01950000     -34.68080000     -72.73610000
S      -42.80760000     -34.99350000     -72.03110000
C      -47.64310000     -33.28710000     -71.70680000
H      -46.60830000     -32.88750000     -71.91290000
H      -48.19710000     -32.40840000     -71.78350000
C      -44.56240000     -35.37800000     -71.56100000
H      -44.80170000     -36.32230000     -72.00550000
H      -45.22470000     -34.59640000     -71.96830000
C      -44.70990000     -35.50340000     -70.04980000
H      -45.69530000     -36.01680000     -69.76430000
H      -43.98260000     -36.23210000     -69.65880000
C      -47.64750000     -33.71290000     -70.23800000
H      -47.24220000     -34.66550000     -70.11250000
H      -48.63500000     -33.77550000     -69.84090000
C      -46.80130000     -32.78000000     -69.45430000
C      -47.05480000     -31.46120000     -69.17140000
C      -45.48000000     -33.16370000     -69.03680000
H      -47.84020000     -30.86660000     -69.67050000
C      -44.87790000     -32.08910000     -68.33650000
C      -44.55230000     -34.28800000     -69.18060000
C      -43.34100000     -34.05570000     -68.55100000
S      -45.83840000     -30.66070000     -68.22640000
S      -43.28400000     -32.41520000     -67.85620000
H      -42.51350000     -34.74100000     -68.73500000
