40
Properties=species:S:1:pos:R:3 #=T CELL(abcABC):=T 1.889726e+02=T 90.00000=T Traj:=T positionsangstrom=T Step:=T 0=T Bead:=T pbc="F F F"
C      -43.43560000     -32.80310000     -74.00370000
C      -43.94130000     -34.12230000     -74.14220000
C      -45.31260000     -34.28420000     -74.28340000
C      -46.15600000     -33.15460000     -74.41130000
C      -45.60220000     -31.85730000     -74.30550000
C      -44.27250000     -31.71950000     -74.08500000
H      -42.44670000     -32.65570000     -73.62800000
H      -45.88160000     -35.30590000     -74.24610000
H      -46.21660000     -30.99920000     -74.67240000
H      -43.97060000     -30.65910000     -73.97050000
C      -47.60470000     -33.35550000     -74.64340000
H      -47.70730000     -33.96810000     -75.54080000
H      -48.07450000     -32.47180000     -74.91810000
C      -43.08870000     -35.28530000     -73.70840000
H      -43.45250000     -36.28710000     -74.02810000
H      -42.06480000     -35.24520000     -74.06690000
S      -48.49380000     -34.12000000     -73.27980000
S      -42.77360000     -35.26580000     -71.83230000
C      -47.99290000     -33.14550000     -71.84690000
H      -47.13320000     -32.60040000     -72.23310000
H      -48.72420000     -32.34900000     -71.74360000
C      -44.50090000     -35.71460000     -71.34420000
H      -44.61690000     -36.75090000     -71.61130000
H      -45.14120000     -34.97350000     -71.90880000
C      -44.72040000     -35.57350000     -69.81510000
H      -45.72090000     -35.76160000     -69.50130000
H      -44.11290000     -36.37380000     -69.28940000
C      -47.55890000     -33.89030000     -70.63130000
H      -46.97340000     -34.79020000     -70.97630000
H      -48.41210000     -34.30170000     -70.05190000
C      -46.75730000     -32.91750000     -69.80790000
C      -47.26130000     -31.75540000     -69.37460000
C      -45.37510000     -33.12530000     -69.32170000
H      -48.27900000     -31.39790000     -69.50140000
C      -44.97150000     -31.99660000     -68.57690000
C      -44.34000000     -34.14110000     -69.35860000
C      -43.23240000     -33.86420000     -68.61680000
S      -46.14460000     -30.78170000     -68.44150000
S      -43.40950000     -32.33950000     -67.78530000
H      -42.45470000     -34.54490000     -68.20000000
