40
Properties=species:S:1:pos:R:3 #=T CELL(abcABC):=T 1.889726e+02=T 90.00000=T Traj:=T positionsangstrom=T Step:=T 0=T Bead:=T pbc="F F F"
C      -44.08820000     -35.27840000     -68.06450000
C      -43.41850000     -34.99000000     -69.26170000
C      -43.13360000     -33.67040000     -69.54800000
C      -43.26990000     -32.64590000     -68.58760000
C      -43.94620000     -32.92020000     -67.42710000
C      -44.29460000     -34.25960000     -67.15640000
H      -44.46900000     -36.27920000     -67.96270000
H      -42.62070000     -33.47740000     -70.50580000
H      -44.08040000     -32.18100000     -66.65210000
H      -44.79250000     -34.55490000     -66.23480000
C      -42.89150000     -31.25080000     -68.86950000
H      -41.85160000     -31.18450000     -69.10660000
H      -43.00190000     -30.61340000     -68.02530000
C      -43.13120000     -36.12110000     -70.20400000
H      -42.21950000     -35.88900000     -70.65470000
H      -43.05260000     -37.10420000     -69.68590000
S      -43.57120000     -30.45530000     -70.39650000
S      -44.27510000     -36.30230000     -71.65710000
C      -45.38500000     -30.49010000     -70.12700000
H      -45.71560000     -30.29280000     -69.09720000
H      -45.70210000     -29.62640000     -70.66900000
C      -46.01880000     -36.41540000     -70.94220000
H      -45.84500000     -36.70910000     -69.88710000
H      -46.51730000     -37.10870000     -71.63460000
C      -46.80250000     -35.10610000     -70.87520000
H      -47.84460000     -35.29040000     -70.53990000
H      -46.27110000     -34.39500000     -70.25560000
C      -46.05430000     -31.73790000     -70.58120000
H      -46.93600000     -31.87660000     -70.01760000
H      -45.43020000     -32.61070000     -70.34220000
C      -46.25490000     -31.88720000     -72.06890000
C      -46.43760000     -30.80630000     -72.91000000
C      -46.74840000     -33.15200000     -72.63350000
H      -46.15160000     -29.83040000     -72.61380000
C      -46.98660000     -32.98670000     -74.04760000
C      -47.01320000     -34.53270000     -72.26070000
C      -47.42510000     -35.26460000     -73.33710000
S      -46.79130000     -31.29380000     -74.56980000
S      -47.59330000     -34.34450000     -74.81680000
H      -47.69790000     -36.29660000     -73.37810000
