40
Properties=species:S:1:pos:R:3 #=T CELL(abcABC):=T 1.889726e+02=T 90.00000=T Traj:=T positionsangstrom=T Step:=T 0=T Bead:=T pbc="F F F"
C      -43.93370000     -32.52410000     -74.32080000
C      -44.08220000     -33.92770000     -74.29340000
C      -45.31310000     -34.54030000     -74.61590000
C      -46.43770000     -33.71430000     -74.69490000
C      -46.25170000     -32.36270000     -74.74590000
C      -45.01940000     -31.75130000     -74.63490000
H      -42.95800000     -32.05990000     -74.08290000
H      -45.29440000     -35.60390000     -74.73570000
H      -47.20000000     -31.78650000     -74.88790000
H      -44.93180000     -30.66860000     -74.68460000
C      -47.87150000     -34.14250000     -74.65410000
H      -48.32620000     -34.95180000     -75.33020000
H      -48.54120000     -33.29680000     -74.94300000
C      -42.91630000     -34.64930000     -73.83330000
H      -42.95160000     -35.76380000     -73.91510000
H      -41.93510000     -34.26160000     -74.19310000
S      -48.25030000     -34.73950000     -72.93080000
S      -42.89420000     -34.39850000     -71.97940000
C      -47.62130000     -33.31420000     -71.87770000
H      -46.65550000     -33.08430000     -72.15500000
H      -48.16610000     -32.39600000     -72.07870000
C      -44.46980000     -35.35230000     -71.46990000
H      -44.44830000     -36.32700000     -71.82790000
H      -45.25480000     -34.77390000     -71.83840000
C      -44.60910000     -35.51630000     -69.97090000
H      -45.62960000     -35.87920000     -69.72780000
H      -43.76920000     -36.13120000     -69.59920000
C      -47.64270000     -33.66420000     -70.34760000
H      -47.39010000     -34.69920000     -70.18800000
H      -48.61280000     -33.58670000     -69.94980000
C      -46.69150000     -32.74670000     -69.49970000
C      -47.02850000     -31.49590000     -69.06440000
C      -45.38310000     -33.09030000     -69.07600000
H      -48.01280000     -31.12410000     -69.06140000
C      -44.82060000     -32.08180000     -68.30310000
C      -44.43430000     -34.20980000     -69.30750000
C      -43.24470000     -34.03290000     -68.66860000
S      -45.83730000     -30.74620000     -68.10710000
S      -43.18390000     -32.47560000     -67.85680000
H      -42.54780000     -34.82990000     -68.54420000
