40
Properties=species:S:1:pos:R:3 #=T CELL(abcABC):=T 1.889726e+02=T 90.00000=T Traj:=T positionsangstrom=T Step:=T 0=T Bead:=T pbc="F F F"
C      -45.03100000     -30.93330000     -71.78550000
C      -46.14000000     -30.94370000     -70.88660000
C      -47.29430000     -31.73100000     -71.21020000
C      -47.35550000     -32.50220000     -72.40570000
C      -46.28220000     -32.39890000     -73.26090000
C      -45.07330000     -31.66410000     -72.97500000
H      -44.09670000     -30.38200000     -71.56020000
H      -48.06760000     -31.60860000     -70.41310000
H      -46.24520000     -33.14690000     -74.02940000
H      -44.25380000     -31.57150000     -73.72670000
C      -48.56620000     -33.40320000     -72.72760000
H      -48.42900000     -34.05080000     -73.54560000
H      -49.44130000     -32.73140000     -72.77690000
C      -46.06040000     -30.18560000     -69.63950000
H      -45.77340000     -29.09090000     -69.75150000
H      -47.02070000     -30.24860000     -69.06070000
S      -48.80190000     -34.43970000     -71.19450000
S      -44.57800000     -30.90250000     -68.74790000
C      -47.85000000     -36.01470000     -71.56490000
H      -48.44110000     -36.82600000     -71.28240000
H      -47.57940000     -36.00850000     -72.56430000
C      -45.34290000     -32.57450000     -68.50980000
H      -46.28990000     -32.64800000     -69.12380000
H      -45.61900000     -32.53550000     -67.45570000
C      -44.39010000     -33.75740000     -68.68320000
H      -43.55620000     -33.66280000     -67.96750000
H      -44.90500000     -34.65590000     -68.27190000
C      -46.44530000     -35.99370000     -70.75590000
H      -46.33400000     -37.05430000     -70.41610000
H      -46.65410000     -35.36000000     -69.94210000
C      -45.34850000     -35.39710000     -71.70570000
C      -45.30100000     -35.68940000     -73.02520000
C      -44.19600000     -34.63940000     -71.29050000
H      -45.89540000     -36.26430000     -73.73560000
C      -43.23790000     -34.45270000     -72.34430000
C      -43.74200000     -34.00570000     -70.07000000
C      -42.52350000     -33.51010000     -70.20710000
S      -43.77840000     -35.11420000     -73.77810000
S      -41.85600000     -33.47320000     -71.86270000
H      -41.94580000     -32.99770000     -69.41870000
