40
Properties=species:S:1:pos:R:3 #=T CELL(abcABC):=T 1.889726e+02=T 90.00000=T Traj:=T positionsangstrom=T Step:=T 0=T Bead:=T pbc="F F F"
C      -43.91650000     -32.45930000     -74.56290000
C      -44.07640000     -33.85910000     -74.29500000
C      -45.34240000     -34.42990000     -74.43940000
C      -46.47570000     -33.65100000     -74.72060000
C      -46.33540000     -32.28410000     -74.88510000
C      -45.03160000     -31.68440000     -74.86690000
H      -42.96820000     -31.97740000     -74.50060000
H      -45.53640000     -35.44750000     -74.24480000
H      -47.13270000     -31.67700000     -75.21820000
H      -44.88480000     -30.58590000     -74.92430000
C      -47.82150000     -34.41180000     -74.64280000
H      -47.59700000     -35.45490000     -74.82230000
H      -48.56190000     -34.02170000     -75.25460000
C      -42.95350000     -34.74560000     -73.88780000
H      -43.12420000     -35.79950000     -74.08200000
H      -42.04430000     -34.46310000     -74.34230000
S      -48.37830000     -34.42460000     -72.87720000
S      -42.75830000     -34.55700000     -71.96820000
C      -47.45590000     -33.22500000     -71.78500000
H      -46.35260000     -33.03220000     -71.98190000
H      -47.94750000     -32.20750000     -71.77830000
C      -44.43140000     -35.35500000     -71.48750000
H      -44.46160000     -36.42230000     -71.96770000
H      -45.18110000     -34.66910000     -72.00890000
C      -44.57680000     -35.49660000     -69.96330000
H      -45.58730000     -35.95350000     -69.70850000
H      -43.81550000     -36.18510000     -69.61550000
C      -47.48750000     -33.88130000     -70.35910000
H      -47.12860000     -34.93880000     -70.34500000
H      -48.52870000     -33.84340000     -69.92630000
C      -46.71930000     -32.97510000     -69.43510000
C      -47.14400000     -31.69520000     -69.10760000
C      -45.34920000     -33.14060000     -69.09540000
H      -48.11970000     -31.32210000     -69.47390000
C      -44.89050000     -32.14550000     -68.25210000
C      -44.38240000     -34.20530000     -69.19930000
C      -43.20870000     -33.97510000     -68.51310000
S      -45.91170000     -30.78970000     -68.16320000
S      -43.22200000     -32.35400000     -67.79110000
H      -42.37680000     -34.68370000     -68.49320000
