40
Properties=species:S:1:pos:R:3 #=T CELL(abcABC):=T 1.889726e+02=T 90.00000=T Traj:=T positionsangstrom=T Step:=T 0=T Bead:=T pbc="F F F"
C      -44.20980000     -35.33170000     -67.97700000
C      -43.51700000     -35.12010000     -69.14180000
C      -42.97810000     -33.84100000     -69.42840000
C      -43.24690000     -32.69490000     -68.67100000
C      -43.91120000     -32.97540000     -67.45880000
C      -44.34580000     -34.19990000     -67.07060000
H      -44.62430000     -36.33300000     -67.73670000
H      -42.48190000     -33.82450000     -70.40490000
H      -44.20520000     -32.17440000     -66.76840000
H      -44.93160000     -34.26830000     -66.17610000
C      -42.77220000     -31.28180000     -68.89250000
H      -41.67510000     -31.18480000     -69.09830000
H      -42.98110000     -30.63250000     -67.99150000
C      -43.34680000     -36.23290000     -70.17520000
H      -42.32430000     -36.38240000     -70.51030000
H      -43.68780000     -37.20710000     -69.70220000
S      -43.51620000     -30.41390000     -70.31410000
S      -44.38070000     -35.91220000     -71.65160000
C      -45.36400000     -30.62090000     -70.05780000
H      -45.49540000     -30.53270000     -68.98770000
H      -45.84730000     -29.79330000     -70.53060000
C      -46.00680000     -36.27810000     -70.91720000
H      -45.94630000     -36.70090000     -69.94800000
H      -46.41450000     -37.08890000     -71.59030000
C      -46.93200000     -35.05840000     -70.90880000
H      -47.87250000     -35.35720000     -70.39620000
H      -46.41830000     -34.30130000     -70.29210000
C      -45.85790000     -31.89770000     -70.62130000
H      -46.76680000     -32.18570000     -69.95350000
H      -45.09110000     -32.62780000     -70.43300000
C      -46.31320000     -31.95700000     -72.07610000
C      -46.14110000     -30.90590000     -72.96790000
C      -47.01640000     -33.10640000     -72.68010000
H      -45.50330000     -30.05570000     -72.88230000
C      -47.13730000     -32.98430000     -74.05910000
C      -47.18760000     -34.51220000     -72.32660000
C      -47.39500000     -35.34270000     -73.38400000
S      -46.73230000     -31.30960000     -74.59470000
S      -47.47270000     -34.39540000     -74.92460000
H      -47.52200000     -36.43500000     -73.48810000
