40
Properties=species:S:1:pos:R:3 #=T CELL(abcABC):=T 1.889726e+02=T 90.00000=T Traj:=T positionsangstrom=T Step:=T 0=T Bead:=T pbc="F F F"
C      -44.31990000     -34.92270000     -69.62400000
C      -45.71100000     -34.88420000     -69.35010000
C      -46.11830000     -33.73220000     -68.69160000
C      -45.37620000     -32.52670000     -68.58830000
C      -44.06780000     -32.53720000     -69.15010000
C      -43.57230000     -33.74750000     -69.55990000
H      -43.76470000     -35.84500000     -69.89320000
H      -47.11590000     -33.73220000     -68.21660000
H      -43.52190000     -31.58690000     -69.17760000
H      -42.50770000     -33.80590000     -69.81330000
C      -46.00540000     -31.38490000     -67.83580000
H      -45.32790000     -30.52270000     -67.80000000
H      -46.46050000     -31.72890000     -66.94290000
C      -46.65800000     -36.07580000     -69.47900000
H      -46.88310000     -36.62430000     -68.54390000
H      -47.64580000     -35.62710000     -69.70930000
S      -47.43550000     -30.69570000     -68.86370000
S      -46.26650000     -37.24160000     -70.82120000
C      -46.54380000     -30.43340000     -70.50410000
H      -47.11100000     -29.62180000     -71.04330000
H      -45.55660000     -30.04890000     -70.32270000
C      -46.89240000     -36.47180000     -72.31300000
H      -47.99280000     -36.60900000     -72.25820000
H      -46.52420000     -37.02400000     -73.12330000
C      -46.60910000     -34.94230000     -72.44110000
H      -47.25250000     -34.52740000     -73.23830000
H      -46.86870000     -34.33760000     -71.58440000
C      -46.60160000     -31.70830000     -71.37050000
H      -47.58640000     -31.69070000     -71.91100000
H      -46.56850000     -32.62290000     -70.77350000
C      -45.43700000     -31.80650000     -72.31730000
C      -44.76510000     -30.69400000     -72.75340000
C      -44.92150000     -33.00980000     -72.98110000
H      -44.94970000     -29.64970000     -72.56420000
C      -43.82300000     -32.79920000     -73.81920000
C      -45.28240000     -34.41540000     -72.89420000
C      -44.38290000     -35.21040000     -73.56960000
S      -43.47120000     -31.07250000     -73.94250000
S      -43.08040000     -34.32300000     -74.27440000
H      -44.33500000     -36.28710000     -73.53730000
