40
Properties=species:S:1:pos:R:3 #=T CELL(abcABC):=T 1.889726e+02=T 90.00000=T Traj:=T positionsangstrom=T Step:=T 0=T Bead:=T pbc="F F F"
C      -44.25140000     -35.32230000     -67.95800000
C      -43.50910000     -35.05100000     -69.10690000
C      -43.02040000     -33.75870000     -69.38080000
C      -43.23280000     -32.68540000     -68.51630000
C      -43.97880000     -32.98930000     -67.35180000
C      -44.44530000     -34.25740000     -67.05110000
H      -44.53210000     -36.36550000     -67.76360000
H      -42.40240000     -33.68230000     -70.21620000
H      -44.15800000     -32.29050000     -66.54030000
H      -44.92200000     -34.29750000     -66.08020000
C      -42.52400000     -31.33310000     -68.83230000
H      -41.44340000     -31.51700000     -69.03990000
H      -42.67350000     -30.78300000     -67.93900000
C      -43.31110000     -36.13100000     -70.16950000
H      -42.28260000     -36.05900000     -70.61950000
H      -43.44760000     -37.09170000     -69.78010000
S      -43.39940000     -30.52130000     -70.27620000
S      -44.47150000     -35.75860000     -71.61180000
C      -45.27330000     -30.70470000     -70.02470000
H      -45.37000000     -30.76260000     -68.95030000
H      -45.74370000     -29.75560000     -70.40340000
C      -46.06710000     -36.37730000     -70.93690000
H      -46.01830000     -36.78520000     -69.90710000
H      -46.32880000     -37.30490000     -71.51420000
C      -47.07190000     -35.22910000     -71.05140000
H      -48.05870000     -35.47230000     -70.70130000
H      -46.82710000     -34.56960000     -70.24990000
C      -45.88720000     -31.91670000     -70.62460000
H      -46.85860000     -32.08300000     -70.10460000
H      -45.27580000     -32.73890000     -70.29690000
C      -46.28790000     -31.99980000     -72.08450000
C      -46.18560000     -30.89470000     -72.97220000
C      -46.81940000     -33.16150000     -72.77870000
H      -45.80850000     -29.92060000     -72.68270000
C      -46.90970000     -32.98910000     -74.18590000
C      -47.21290000     -34.54730000     -72.38370000
C      -47.66660000     -35.24030000     -73.44700000
S      -46.59860000     -31.25730000     -74.61560000
S      -47.63190000     -34.37850000     -74.98500000
H      -47.93920000     -36.33180000     -73.48150000
