40
Properties=species:S:1:pos:R:3 #=T CELL(abcABC):=T 1.889726e+02=T 90.00000=T Traj:=T positionsangstrom=T Step:=T 0=T Bead:=T pbc="F F F"
C      -46.06930000     -29.77740000     -71.75020000
C      -45.34560000     -30.10920000     -70.58920000
C      -46.04580000     -30.84730000     -69.63060000
C      -47.29490000     -31.39160000     -69.86890000
C      -47.95510000     -31.09450000     -71.03190000
C      -47.37050000     -30.26920000     -71.99340000
H      -45.77990000     -29.06080000     -72.52450000
H      -45.60190000     -31.02970000     -68.72220000
H      -48.98430000     -31.42740000     -71.09280000
H      -47.87980000     -30.04170000     -72.89640000
C      -47.99740000     -32.20880000     -68.80060000
H      -48.78210000     -32.68810000     -69.31380000
H      -48.48100000     -31.46550000     -68.13670000
C      -44.00800000     -29.64120000     -70.24250000
H      -43.73220000     -28.56690000     -70.27590000
H      -43.87470000     -29.89310000     -69.16760000
S      -47.15080000     -33.44950000     -67.83890000
S      -42.54790000     -30.52400000     -71.27250000
C      -46.88230000     -34.72650000     -69.10130000
H      -46.91810000     -35.70040000     -68.64930000
H      -47.75250000     -34.84300000     -69.93440000
C      -43.02890000     -32.25270000     -71.41900000
H      -43.26270000     -32.75970000     -70.48120000
H      -42.14220000     -32.76510000     -71.84160000
C      -44.15570000     -32.59050000     -72.37390000
H      -45.07780000     -32.39320000     -71.75140000
H      -44.17470000     -31.91650000     -73.20590000
C      -45.58730000     -34.53240000     -69.81510000
H      -44.76110000     -34.53650000     -69.03870000
H      -45.54550000     -33.57520000     -70.34140000
C      -45.34130000     -35.49120000     -71.02960000
C      -45.71280000     -36.80000000     -70.96100000
C      -44.78920000     -35.15400000     -72.31920000
H      -46.08270000     -37.30890000     -70.06420000
C      -44.81310000     -36.24440000     -73.17920000
C      -44.15620000     -34.00390000     -72.94670000
C      -43.75000000     -34.31860000     -74.19440000
S      -45.43860000     -37.68470000     -72.50080000
S      -44.09730000     -35.94270000     -74.73370000
H      -43.23820000     -33.49380000     -74.79680000
