40
Properties=species:S:1:pos:R:3 #=T CELL(abcABC):=T 1.889726e+02=T 90.00000=T Traj:=T positionsangstrom=T Step:=T 0=T Bead:=T pbc="F F F"
C      -45.89170000     -29.58050000     -71.17530000
C      -45.41020000     -30.30740000     -70.12370000
C      -46.18280000     -31.24430000     -69.44580000
C      -47.47200000     -31.56100000     -69.85000000
C      -47.98200000     -30.82800000     -71.01090000
C      -47.16900000     -29.90630000     -71.70680000
H      -45.28330000     -28.77000000     -71.52540000
H      -45.68350000     -31.86070000     -68.64970000
H      -48.99700000     -31.00920000     -71.39620000
H      -47.56320000     -29.37200000     -72.58880000
C      -48.40760000     -32.49100000     -69.06980000
H      -48.97140000     -33.08380000     -69.82840000
H      -49.05400000     -31.94660000     -68.38260000
C      -44.10310000     -30.04460000     -69.58590000
H      -43.89420000     -28.99760000     -69.46580000
H      -43.66440000     -30.54140000     -68.72710000
S      -47.54780000     -33.68930000     -68.05490000
S      -42.84050000     -30.45060000     -71.00550000
C      -46.91760000     -34.96510000     -69.23270000
H      -46.27140000     -35.67210000     -68.65410000
H      -47.70770000     -35.67710000     -69.64680000
C      -42.99470000     -32.22750000     -71.56400000
H      -43.26690000     -32.85940000     -70.69880000
H      -42.03640000     -32.49330000     -72.04930000
C      -44.13830000     -32.40920000     -72.61830000
H      -45.06160000     -32.09520000     -72.27480000
H      -43.89460000     -31.84940000     -73.53220000
C      -45.99350000     -34.29320000     -70.32060000
H      -45.10020000     -33.82730000     -69.94880000
H      -46.60160000     -33.60540000     -70.89290000
C      -45.57910000     -35.34720000     -71.34500000
C      -45.87430000     -36.68540000     -71.27120000
C      -44.72620000     -35.00910000     -72.50200000
H      -46.56390000     -37.04950000     -70.52130000
C      -44.38080000     -36.18670000     -73.17820000
C      -44.16850000     -33.82190000     -73.13380000
C      -43.51520000     -34.17200000     -74.32050000
S      -45.15890000     -37.67300000     -72.59010000
S      -43.44830000     -35.90140000     -74.57160000
H      -42.87270000     -33.59120000     -74.91360000
