40
Properties=species:S:1:pos:R:3 #=T CELL(abcABC):=T 1.889726e+02=T 90.00000=T Traj:=T positionsangstrom=T Step:=T 0=T Bead:=T pbc="F F F"
C      -42.71180000     -32.96620000     -73.47870000
C      -43.21700000     -34.28160000     -73.55380000
C      -44.26620000     -34.55310000     -74.41020000
C      -45.08510000     -33.49250000     -74.98190000
C      -44.54850000     -32.22600000     -74.78950000
C      -43.31740000     -31.91510000     -74.11650000
H      -41.71030000     -32.86370000     -72.96680000
H      -44.52680000     -35.58520000     -74.50680000
H      -44.95100000     -31.38870000     -75.35200000
H      -42.90680000     -30.92520000     -74.05750000
C      -46.53510000     -33.71050000     -75.37860000
H      -46.51780000     -34.61560000     -75.98940000
H      -46.81300000     -32.75630000     -75.96450000
C      -42.52970000     -35.36760000     -72.77430000
H      -42.82380000     -36.32600000     -73.14210000
H      -41.47330000     -35.47470000     -72.80200000
S      -47.67640000     -34.08630000     -73.89190000
S      -43.04470000     -35.19420000     -71.06630000
C      -47.45730000     -32.72070000     -72.74680000
H      -46.37730000     -32.36890000     -72.67980000
H      -47.98870000     -31.84910000     -73.10640000
C      -44.83910000     -35.43200000     -71.22190000
H      -45.07260000     -36.32700000     -71.76270000
H      -45.39160000     -34.77380000     -71.94320000
C      -45.51790000     -35.51470000     -69.90090000
H      -46.53700000     -35.82060000     -70.05050000
H      -44.98660000     -36.31150000     -69.34360000
C      -47.91930000     -33.13050000     -71.29390000
H      -47.81830000     -34.23380000     -71.29850000
H      -48.97170000     -32.85730000     -71.20810000
C      -47.18850000     -32.46500000     -70.14480000
C      -47.51610000     -31.13380000     -69.88150000
C      -46.17700000     -33.03640000     -69.29550000
H      -48.31160000     -30.55070000     -70.26090000
C      -45.63130000     -32.11470000     -68.38190000
C      -45.45710000     -34.28930000     -69.08360000
C      -44.52850000     -34.26970000     -68.07030000
S      -46.50870000     -30.56300000     -68.45020000
S      -44.35550000     -32.73770000     -67.34590000
H      -43.94580000     -35.07670000     -67.61890000
