40
Properties=species:S:1:pos:R:3 #=T CELL(abcABC):=T 1.889726e+02=T 90.00000=T Traj:=T positionsangstrom=T Step:=T 0=T Bead:=T pbc="F F F"
C      -45.95060000     -29.89140000     -71.63570000
C      -45.38430000     -30.27810000     -70.34470000
C      -46.08590000     -31.11830000     -69.48860000
C      -47.36760000     -31.43240000     -69.80460000
C      -47.91870000     -30.97300000     -70.97550000
C      -47.25540000     -30.21350000     -71.97190000
H      -45.39910000     -29.24580000     -72.26010000
H      -45.72650000     -31.57080000     -68.60640000
H      -48.94040000     -31.15830000     -71.23570000
H      -47.71480000     -29.88370000     -72.88520000
C      -48.25810000     -32.22040000     -68.89000000
H      -49.16350000     -32.69660000     -69.29890000
H      -48.56040000     -31.42070000     -68.16480000
C      -43.92450000     -29.82910000     -69.94940000
H      -43.84640000     -28.74400000     -70.19330000
H      -43.61350000     -29.99340000     -68.93010000
S      -47.33050000     -33.49780000     -67.91220000
S      -42.68920000     -30.46960000     -71.17390000
C      -46.86350000     -34.84080000     -69.12800000
H      -46.38490000     -35.53680000     -68.47350000
H      -47.72590000     -35.15880000     -69.66680000
C      -42.97000000     -32.32130000     -71.39780000
H      -43.21210000     -32.78000000     -70.44110000
H      -41.93770000     -32.58830000     -71.62940000
C      -44.01710000     -32.55130000     -72.44000000
H      -44.97090000     -32.13850000     -72.08530000
H      -43.73980000     -31.95540000     -73.28340000
C      -45.67840000     -34.43400000     -70.02220000
H      -44.83510000     -34.19380000     -69.39920000
H      -45.94710000     -33.46920000     -70.45900000
C      -45.38710000     -35.45880000     -71.14650000
C      -45.80350000     -36.75290000     -71.07600000
C      -44.65620000     -35.16210000     -72.34790000
H      -46.21390000     -37.18300000     -70.13670000
C      -44.60240000     -36.24500000     -73.22510000
C      -44.16860000     -33.92040000     -72.99720000
C      -43.85600000     -34.13800000     -74.27820000
S      -45.35810000     -37.69440000     -72.49900000
S      -43.93360000     -35.83030000     -74.81090000
H      -43.54980000     -33.30990000     -75.00710000
