40
Properties=species:S:1:pos:R:3 #=T CELL(abcABC):=T 1.889726e+02=T 90.00000=T Traj:=T positionsangstrom=T Step:=T 0=T Bead:=T pbc="F F F"
C      -45.90370000     -29.85190000     -71.37390000
C      -45.59080000     -30.33070000     -70.12260000
C      -46.46080000     -31.19640000     -69.49580000
C      -47.71310000     -31.56270000     -70.03100000
C      -47.96680000     -31.13680000     -71.41710000
C      -47.11770000     -30.25590000     -72.04640000
H      -45.24160000     -29.17940000     -71.94800000
H      -46.17540000     -31.51780000     -68.49690000
H      -48.89780000     -31.48310000     -71.82390000
H      -47.44890000     -30.00050000     -73.03010000
C      -48.77910000     -32.41120000     -69.44100000
H      -49.47090000     -32.70140000     -70.18880000
H      -49.35830000     -31.82310000     -68.71620000
C      -44.30700000     -29.95310000     -69.42140000
H      -44.27860000     -28.89550000     -69.39750000
H      -44.25660000     -30.33190000     -68.39510000
S      -48.24710000     -33.95180000     -68.53970000
S      -42.82780000     -30.43480000     -70.46830000
C      -47.41620000     -34.94470000     -69.82080000
H      -47.34860000     -35.95980000     -69.33090000
H      -48.14360000     -34.97400000     -70.62210000
C      -43.25100000     -32.19720000     -70.84150000
H      -43.91870000     -32.59440000     -70.03910000
H      -42.36990000     -32.87650000     -70.77450000
C      -43.95730000     -32.35740000     -72.20270000
H      -44.96940000     -32.07900000     -72.22460000
H      -43.57020000     -31.61750000     -72.85720000
C      -45.96810000     -34.47480000     -70.30850000
H      -45.27460000     -34.45430000     -69.47200000
H      -45.94670000     -33.47010000     -70.68890000
C      -45.47230000     -35.37520000     -71.38490000
C      -45.81960000     -36.66810000     -71.56680000
C      -44.46600000     -34.94740000     -72.38430000
H      -46.51020000     -37.28190000     -70.98530000
C      -44.10990000     -36.03990000     -73.20230000
C      -43.80730000     -33.74180000     -72.81770000
C      -42.85190000     -33.96250000     -73.80860000
S      -45.01700000     -37.50390000     -72.89590000
S      -42.79200000     -35.69790000     -74.24380000
H      -42.23980000     -33.16980000     -74.29560000
