40
Properties=species:S:1:pos:R:3 #=T CELL(abcABC):=T 1.889726e+02=T 90.00000=T Traj:=T positionsangstrom=T Step:=T 0=T Bead:=T pbc="F F F"
C      -44.31550000     -35.22110000     -67.91640000
C      -43.57930000     -34.93490000     -69.15800000
C      -43.04570000     -33.65280000     -69.34030000
C      -43.17790000     -32.65540000     -68.34440000
C      -44.00880000     -32.88260000     -67.25750000
C      -44.51010000     -34.21840000     -67.01860000
H      -44.69610000     -36.21710000     -67.82400000
H      -42.54170000     -33.42800000     -70.23570000
H      -44.20690000     -32.21410000     -66.44410000
H      -45.03100000     -34.38500000     -66.04730000
C      -42.71570000     -31.25110000     -68.67860000
H      -41.62320000     -31.17270000     -68.88480000
H      -42.88460000     -30.52210000     -67.85790000
C      -43.50300000     -36.14870000     -70.05960000
H      -42.44420000     -36.26700000     -70.35570000
H      -43.82340000     -37.07160000     -69.59710000
S      -43.41800000     -30.65290000     -70.35300000
S      -44.41210000     -35.95820000     -71.70000000
C      -45.23030000     -30.75370000     -70.01940000
H      -45.38410000     -30.72740000     -68.98690000
H      -45.74320000     -29.86030000     -70.45850000
C      -46.15800000     -36.38630000     -71.09440000
H      -46.03400000     -36.65190000     -70.03470000
H      -46.46190000     -37.17030000     -71.71030000
C      -47.10730000     -35.18010000     -71.12390000
H      -48.12970000     -35.48600000     -70.83590000
H      -46.66250000     -34.42000000     -70.47680000
C      -45.82950000     -32.12670000     -70.56320000
H      -46.70130000     -32.31610000     -69.97130000
H      -45.12630000     -32.99610000     -70.34470000
C      -46.10540000     -32.14990000     -72.08360000
C      -45.83020000     -31.00640000     -72.90110000
C      -46.71640000     -33.19850000     -72.81740000
H      -45.46970000     -30.04920000     -72.49090000
C      -46.97510000     -32.86360000     -74.13130000
C      -47.23440000     -34.54180000     -72.46970000
C      -47.70610000     -35.13260000     -73.59130000
S      -46.45590000     -31.29340000     -74.51650000
S      -47.75160000     -34.13950000     -75.02620000
H      -48.03480000     -36.15960000     -73.73570000
