40
Properties=species:S:1:pos:R:3 #=T CELL(abcABC):=T 1.889726e+02=T 90.00000=T Traj:=T positionsangstrom=T Step:=T 0=T Bead:=T pbc="F F F"
C      -46.02310000     -29.87320000     -71.37060000
C      -45.74290000     -30.32220000     -70.08980000
C      -46.65380000     -31.10280000     -69.43390000
C      -47.83680000     -31.60850000     -70.12430000
C      -48.07040000     -31.14390000     -71.43950000
C      -47.17240000     -30.20460000     -71.99760000
H      -45.24320000     -29.19490000     -71.70010000
H      -46.52460000     -31.38560000     -68.40690000
H      -48.84960000     -31.58840000     -72.13920000
H      -47.45340000     -29.73540000     -72.88590000
C      -48.79720000     -32.55170000     -69.44540000
H      -49.42000000     -33.05160000     -70.22620000
H      -49.47280000     -32.00900000     -68.73030000
C      -44.44730000     -29.84780000     -69.36480000
H      -44.39980000     -28.69550000     -69.48000000
H      -44.45340000     -30.15630000     -68.32540000
S      -48.00670000     -33.94200000     -68.49430000
S      -42.93390000     -30.56290000     -70.14630000
C      -47.32190000     -34.97930000     -69.85460000
H      -46.90400000     -35.87670000     -69.41990000
H      -48.02160000     -35.31560000     -70.57000000
C      -43.27930000     -32.27640000     -70.78560000
H      -44.02720000     -32.67540000     -70.09740000
H      -42.30000000     -32.70420000     -70.81530000
C      -43.85660000     -32.35470000     -72.23680000
H      -44.93080000     -32.04560000     -72.22630000
H      -43.25920000     -31.63480000     -72.90310000
C      -46.10220000     -34.33590000     -70.60890000
H      -45.41320000     -34.02920000     -69.79810000
H      -46.37870000     -33.52000000     -71.25010000
C      -45.53650000     -35.33940000     -71.59090000
C      -45.92710000     -36.60450000     -71.75210000
C      -44.42910000     -34.91770000     -72.45370000
H      -46.64280000     -37.21280000     -71.21140000
C      -44.04580000     -36.04670000     -73.22940000
C      -43.67510000     -33.74820000     -72.80070000
C      -42.67460000     -34.00810000     -73.73780000
S      -44.89200000     -37.49970000     -72.85940000
S      -42.80440000     -35.64540000     -74.37580000
H      -42.03370000     -33.31200000     -74.25540000
