40
Properties=species:S:1:pos:R:3 #=T CELL(abcABC):=T 1.889726e+02=T 90.00000=T Traj:=T positionsangstrom=T Step:=T 0=T Bead:=T pbc="F F F"
C      -45.97900000     -29.91270000     -71.28280000
C      -45.62650000     -30.48320000     -70.10740000
C      -46.62940000     -31.17980000     -69.38850000
C      -47.85970000     -31.49210000     -69.97900000
C      -48.15810000     -30.88590000     -71.21010000
C      -47.17170000     -30.15860000     -71.90970000
H      -45.25370000     -29.32310000     -71.84290000
H      -46.40900000     -31.46960000     -68.34920000
H      -49.16890000     -31.12490000     -71.67040000
H      -47.43390000     -29.70140000     -72.95060000
C      -48.84650000     -32.35560000     -69.25990000
H      -49.70130000     -32.61460000     -69.89760000
H      -49.30010000     -31.86440000     -68.37300000
C      -44.26430000     -30.17300000     -69.52210000
H      -44.31060000     -29.12190000     -69.05040000
H      -44.11240000     -30.84670000     -68.73580000
S      -48.06870000     -33.85430000     -68.59100000
S      -42.76830000     -30.23670000     -70.64500000
C      -47.52840000     -34.91160000     -69.91540000
H      -47.59330000     -35.95470000     -69.66050000
H      -48.19850000     -34.74310000     -70.74570000
C      -42.64250000     -31.96230000     -71.36400000
H      -42.41680000     -32.64000000     -70.47910000
H      -41.74740000     -31.78220000     -71.97340000
C      -43.87180000     -32.39200000     -72.07090000
H      -44.70360000     -32.35160000     -71.27990000
H      -44.01180000     -31.62250000     -72.86410000
C      -46.15990000     -34.46680000     -70.47380000
H      -45.43830000     -34.43570000     -69.71020000
H      -46.17860000     -33.51770000     -71.01900000
C      -45.50630000     -35.47310000     -71.38860000
C      -45.84580000     -36.80220000     -71.48450000
C      -44.53140000     -35.08130000     -72.42650000
H      -46.51970000     -37.44320000     -70.96620000
C      -44.12990000     -36.16860000     -73.13240000
C      -43.86930000     -33.80380000     -72.68930000
C      -43.03400000     -33.97620000     -73.81480000
S      -44.86060000     -37.70020000     -72.66270000
S      -42.94210000     -35.71600000     -74.33530000
H      -42.40130000     -33.20300000     -74.16670000
