40
Properties=species:S:1:pos:R:3 #=T CELL(abcABC):=T 1.889726e+02=T 90.00000=T Traj:=T positionsangstrom=T Step:=T 0=T Bead:=T pbc="F F F"
C      -46.12950000     -29.39170000     -70.98730000
C      -45.62680000     -30.22220000     -70.01590000
C      -46.43580000     -31.22490000     -69.43870000
C      -47.69440000     -31.54980000     -69.94560000
C      -48.23170000     -30.65860000     -70.91110000
C      -47.50080000     -29.60780000     -71.41020000
H      -45.44660000     -28.67220000     -71.44580000
H      -45.98670000     -31.84370000     -68.73510000
H      -49.21980000     -30.75040000     -71.25120000
H      -48.00600000     -28.90800000     -72.02830000
C      -48.57450000     -32.59520000     -69.24920000
H      -49.25550000     -33.01270000     -70.02280000
H      -49.15180000     -32.10380000     -68.49670000
C      -44.23380000     -30.12850000     -69.46800000
H      -43.90020000     -29.20750000     -68.92210000
H      -44.14250000     -31.01600000     -68.86350000
S      -47.83400000     -33.99010000     -68.31670000
S      -43.02320000     -30.29050000     -70.88750000
C      -47.32460000     -35.03600000     -69.75270000
H      -47.08940000     -36.06900000     -69.32410000
H      -48.13100000     -35.28720000     -70.49600000
C      -42.92090000     -32.12910000     -71.41330000
H      -42.87200000     -32.74280000     -70.53680000
H      -41.94150000     -32.16390000     -71.81210000
C      -44.09320000     -32.49020000     -72.39360000
H      -44.99620000     -32.34650000     -71.91410000
H      -44.00630000     -31.83390000     -73.26840000
C      -46.16850000     -34.44190000     -70.47790000
H      -45.40160000     -34.02810000     -69.87230000
H      -46.49950000     -33.58040000     -71.15430000
C      -45.48190000     -35.45280000     -71.46850000
C      -45.85410000     -36.75780000     -71.57180000
C      -44.45320000     -35.12010000     -72.39820000
H      -46.72930000     -37.19210000     -71.07270000
C      -44.00730000     -36.25030000     -73.17550000
C      -43.88210000     -33.89620000     -72.94080000
C      -42.97330000     -34.06050000     -73.97640000
S      -44.97690000     -37.65470000     -72.77130000
S      -42.82330000     -35.80920000     -74.41940000
H      -42.37000000     -33.38100000     -74.46080000
