40
Properties=species:S:1:pos:R:3 #=T CELL(abcABC):=T 1.889726e+02=T 90.00000=T Traj:=T positionsangstrom=T Step:=T 0=T Bead:=T pbc="F F F"
C      -46.04060000     -29.73520000     -71.33110000
C      -45.60900000     -30.34620000     -70.12540000
C      -46.49310000     -31.23550000     -69.51380000
C      -47.79110000     -31.50180000     -69.94350000
C      -48.18270000     -30.77950000     -71.06940000
C      -47.32120000     -29.93500000     -71.77360000
H      -45.44760000     -29.07890000     -71.91890000
H      -46.09260000     -32.00900000     -68.77110000
H      -49.25320000     -30.88010000     -71.36330000
H      -47.67350000     -29.37150000     -72.70760000
C      -48.77420000     -32.37250000     -69.21200000
H      -49.51530000     -32.66540000     -69.88110000
H      -49.22720000     -31.77500000     -68.37430000
C      -44.22930000     -30.34510000     -69.55810000
H      -44.11070000     -29.44580000     -68.95680000
H      -43.98940000     -31.13510000     -68.81560000
S      -48.17810000     -33.94140000     -68.39050000
S      -42.88780000     -30.31800000     -70.82560000
C      -47.46770000     -34.99830000     -69.77830000
H      -47.25040000     -35.94300000     -69.24520000
H      -48.39380000     -35.18550000     -70.43080000
C      -42.82660000     -32.02900000     -71.45490000
H      -42.54970000     -32.71840000     -70.65740000
H      -41.99090000     -32.10430000     -72.05560000
C      -44.03330000     -32.47860000     -72.19480000
H      -44.93750000     -32.43000000     -71.59110000
H      -44.24280000     -31.82640000     -72.97980000
C      -46.19000000     -34.44040000     -70.46220000
H      -45.56360000     -34.00810000     -69.63770000
H      -46.58320000     -33.59380000     -71.01490000
C      -45.43800000     -35.39580000     -71.31240000
C      -45.73780000     -36.75520000     -71.43730000
C      -44.46490000     -35.04720000     -72.34740000
H      -46.19230000     -37.37880000     -70.65220000
C      -44.02070000     -36.11930000     -73.10060000
C      -43.82730000     -33.81250000     -72.78020000
C      -42.91600000     -34.06370000     -73.82040000
S      -44.77360000     -37.60190000     -72.71240000
S      -42.89470000     -35.71680000     -74.39360000
H      -42.34070000     -33.38670000     -74.30950000
