40
Properties=species:S:1:pos:R:3 #=T CELL(abcABC):=T 1.889726e+02=T 90.00000=T Traj:=T positionsangstrom=T Step:=T 0=T Bead:=T pbc="F F F"
C      -46.09400000     -29.81020000     -71.31950000
C      -45.80410000     -30.32420000     -70.05590000
C      -46.82460000     -31.18930000     -69.50690000
C      -47.97570000     -31.62270000     -70.18320000
C      -48.21130000     -31.10480000     -71.49960000
C      -47.26510000     -30.16800000     -71.99170000
H      -45.29720000     -29.21290000     -71.72900000
H      -46.56010000     -31.58870000     -68.51490000
H      -49.19450000     -31.35570000     -71.94420000
H      -47.42860000     -29.83340000     -73.04420000
C      -48.86200000     -32.58370000     -69.44870000
H      -49.56220000     -32.99880000     -70.12650000
H      -49.41080000     -32.12310000     -68.65400000
C      -44.61640000     -29.97770000     -69.21900000
H      -44.46570000     -28.92810000     -69.10430000
H      -44.67520000     -30.38030000     -68.23410000
S      -47.86850000     -33.85750000     -68.46940000
S      -43.02970000     -30.52380000     -70.03460000
C      -47.28140000     -35.03150000     -69.82270000
H      -46.74870000     -35.83690000     -69.17930000
H      -48.24270000     -35.60280000     -70.12390000
C      -43.19450000     -32.35070000     -70.57370000
H      -43.74420000     -32.98570000     -69.89670000
H      -42.20930000     -32.73750000     -70.40540000
C      -43.66450000     -32.41740000     -72.05590000
H      -44.66840000     -32.02260000     -72.10180000
H      -42.97410000     -31.85720000     -72.65370000
C      -46.36920000     -34.38470000     -70.89320000
H      -45.80460000     -33.53180000     -70.51690000
H      -47.17470000     -33.90360000     -71.58350000
C      -45.49540000     -35.32860000     -71.68220000
C      -45.83530000     -36.59980000     -71.76620000
C      -44.38970000     -34.97770000     -72.52600000
H      -46.68750000     -37.12850000     -71.34800000
C      -43.94860000     -36.05510000     -73.27880000
C      -43.60930000     -33.77680000     -72.74910000
C      -42.73360000     -33.96050000     -73.83090000
S      -44.82490000     -37.49080000     -72.95170000
S      -42.66050000     -35.59100000     -74.42110000
H      -41.99400000     -33.31640000     -74.21130000
