40
Properties=species:S:1:pos:R:3 #=T CELL(abcABC):=T 1.889726e+02=T 90.00000=T Traj:=T positionsangstrom=T Step:=T 0=T Bead:=T pbc="F F F"
C      -45.87390000     -29.54830000     -70.98580000
C      -45.81090000     -30.26480000     -69.79850000
C      -46.77130000     -31.21700000     -69.57280000
C      -47.85420000     -31.43020000     -70.46710000
C      -47.81290000     -30.79250000     -71.66940000
C      -46.80480000     -29.80730000     -71.96930000
H      -45.05920000     -28.95650000     -71.29120000
H      -46.78920000     -31.87540000     -68.64770000
H      -48.68840000     -30.99930000     -72.37480000
H      -46.66680000     -29.33020000     -72.91220000
C      -49.00560000     -32.35210000     -70.17510000
H      -49.55780000     -32.47510000     -71.13660000
H      -49.64110000     -31.85270000     -69.42120000
C      -44.58360000     -30.17340000     -68.91340000
H      -44.33770000     -29.20780000     -68.62110000
H      -44.70300000     -30.77340000     -68.01430000
S      -48.61500000     -34.01240000     -69.40330000
S      -43.01340000     -30.73570000     -69.76040000
C      -47.99350000     -34.99970000     -70.74340000
H      -47.94250000     -36.10040000     -70.48260000
H      -48.66060000     -34.89820000     -71.59250000
C      -43.41960000     -32.41000000     -70.34690000
H      -44.03800000     -32.91860000     -69.65820000
H      -42.47630000     -32.91090000     -70.36380000
C      -43.93490000     -32.41590000     -71.84140000
H      -45.03950000     -32.31360000     -71.85210000
H      -43.61560000     -31.54370000     -72.35960000
C      -46.58330000     -34.44330000     -71.17110000
H      -46.08140000     -34.06040000     -70.27470000
H      -46.64930000     -33.51080000     -71.85510000
C      -45.67990000     -35.35180000     -71.84460000
C      -45.96650000     -36.71730000     -72.12970000
C      -44.34930000     -34.96890000     -72.37140000
H      -46.96100000     -37.19270000     -71.85740000
C      -43.68460000     -36.04220000     -72.93410000
C      -43.62020000     -33.71340000     -72.53390000
C      -42.40250000     -33.94280000     -73.18810000
S      -44.58350000     -37.59650000     -72.80940000
S      -42.13020000     -35.55710000     -73.72470000
H      -41.53350000     -33.25710000     -73.34210000
