40
Properties=species:S:1:pos:R:3 #=T CELL(abcABC):=T 1.889726e+02=T 90.00000=T Traj:=T positionsangstrom=T Step:=T 0=T Bead:=T pbc="F F F"
C      -46.03070000     -29.85010000     -71.16300000
C      -45.95990000     -30.52030000     -69.98170000
C      -46.99900000     -31.39080000     -69.61600000
C      -48.13670000     -31.54580000     -70.36610000
C      -48.20750000     -30.87630000     -71.61820000
C      -47.08870000     -30.14020000     -72.05520000
H      -45.26400000     -29.16360000     -71.61800000
H      -46.91900000     -32.00360000     -68.68700000
H      -49.05360000     -31.20620000     -72.30680000
H      -47.08680000     -29.76660000     -73.11280000
C      -49.15850000     -32.57620000     -69.83680000
H      -50.00460000     -32.91770000     -70.45310000
H      -49.75520000     -32.01880000     -69.09330000
C      -44.76440000     -30.37920000     -69.04130000
H      -44.81330000     -29.46480000     -68.51310000
H      -44.69090000     -31.14580000     -68.25970000
S      -48.51140000     -34.09570000     -69.01540000
S      -43.09530000     -30.41310000     -69.91990000
C      -47.57860000     -34.81100000     -70.41400000
H      -47.68790000     -35.91800000     -70.41230000
H      -47.99750000     -34.51270000     -71.43120000
C      -42.90760000     -32.20200000     -70.44360000
H      -43.41110000     -32.71580000     -69.68820000
H      -41.84400000     -32.42230000     -70.57190000
C      -43.56290000     -32.32770000     -71.85460000
H      -44.66340000     -32.13270000     -71.75120000
H      -43.05780000     -31.68260000     -72.50530000
C      -46.03280000     -34.48300000     -70.44760000
H      -45.56370000     -34.65200000     -69.49990000
H      -45.79210000     -33.38470000     -70.67870000
C      -45.40630000     -35.28320000     -71.54890000
C      -45.77810000     -36.63210000     -71.83110000
C      -44.21480000     -34.88750000     -72.32790000
H      -46.78980000     -36.96530000     -71.58790000
C      -43.73880000     -35.98400000     -73.14120000
C      -43.35110000     -33.70150000     -72.56190000
C      -42.30110000     -33.91190000     -73.37820000
S      -44.78080000     -37.42130000     -73.07320000
S      -42.38000000     -35.59870000     -74.14470000
H      -41.64100000     -33.10130000     -73.65880000
