40
Properties=species:S:1:pos:R:3 #=T CELL(abcABC):=T 1.889726e+02=T 90.00000=T Traj:=T positionsangstrom=T Step:=T 0=T Bead:=T pbc="F F F"
C      -42.10540000     -32.21590000     -72.45040000
C      -42.02120000     -33.58820000     -72.15420000
C      -42.67190000     -34.56760000     -73.00830000
C      -43.31050000     -34.09390000     -74.17510000
C      -43.33900000     -32.74550000     -74.45020000
C      -42.62610000     -31.83590000     -73.65470000
H      -41.53880000     -31.49380000     -71.90760000
H      -42.72160000     -35.57870000     -72.73120000
H      -43.93460000     -32.50470000     -75.36990000
H      -42.61130000     -30.70650000     -73.82640000
C      -44.25030000     -35.00650000     -74.91890000
H      -43.82580000     -35.91960000     -75.32180000
H      -44.78720000     -34.48450000     -75.73720000
C      -41.41630000     -34.11850000     -70.86380000
H      -40.99070000     -35.09170000     -71.12010000
H      -40.59250000     -33.49470000     -70.46270000
S      -45.66950000     -35.69120000     -73.79060000
S      -42.65250000     -34.15020000     -69.43510000
C      -46.51460000     -34.21360000     -73.12550000
H      -45.68650000     -33.68290000     -72.61820000
H      -46.80320000     -33.50400000     -73.93830000
C      -44.19600000     -34.91530000     -70.21690000
H      -43.88770000     -35.94030000     -70.41020000
H      -44.41570000     -34.52920000     -71.26980000
C      -45.44950000     -34.89120000     -69.34390000
H      -46.07730000     -35.74420000     -69.69890000
H      -45.06950000     -35.20010000     -68.36780000
C      -47.62200000     -34.62790000     -72.19060000
H      -47.40890000     -35.52700000     -71.52800000
H      -48.42360000     -34.99600000     -72.86500000
C      -47.91090000     -33.38010000     -71.28950000
C      -48.77080000     -32.39610000     -71.73450000
C      -47.17360000     -32.97590000     -70.10420000
H      -49.33930000     -32.39700000     -72.61680000
C      -47.54470000     -31.71130000     -69.67200000
C      -46.17000000     -33.56710000     -69.16810000
C      -46.09390000     -32.78200000     -68.03430000
S      -48.80300000     -31.01800000     -70.73100000
S      -46.85400000     -31.22720000     -68.12870000
H      -45.49030000     -32.97370000     -67.06640000
