40
Properties=species:S:1:pos:R:3 #=T CELL(abcABC):=T 1.889726e+02=T 90.00000=T Traj:=T positionsangstrom=T Step:=T 0=T Bead:=T pbc="F F F"
C      -43.31070000     -29.27620000     -69.30750000
C      -43.16700000     -30.31750000     -70.25170000
C      -44.30190000     -30.46670000     -71.10410000
C      -45.44990000     -29.68790000     -71.08730000
C      -45.47060000     -28.61110000     -70.21230000
C      -44.45620000     -28.45590000     -69.34530000
H      -42.55240000     -28.96790000     -68.59360000
H      -44.30810000     -31.36090000     -71.73320000
H      -46.41750000     -28.06600000     -70.26820000
H      -44.60880000     -27.65390000     -68.59830000
C      -46.64940000     -30.01080000     -71.92220000
H      -46.37660000     -30.68870000     -72.69390000
H      -47.23120000     -29.20290000     -72.33710000
C      -42.05030000     -31.32030000     -70.43670000
H      -41.98190000     -31.65700000     -71.51680000
H      -41.09960000     -30.84360000     -70.32120000
S      -47.85890000     -30.91270000     -70.89970000
S      -42.17790000     -32.85480000     -69.44620000
C      -47.96950000     -32.57130000     -71.73760000
H      -49.02820000     -32.82720000     -71.67890000
H      -47.62980000     -32.47810000     -72.76400000
C      -43.61600000     -33.77190000     -70.11540000
H      -44.58290000     -33.40480000     -69.66070000
H      -43.54430000     -34.74850000     -69.51930000
C      -43.72250000     -34.17910000     -71.60460000
H      -44.23190000     -33.33060000     -72.17660000
H      -42.75360000     -34.24600000     -72.04340000
C      -47.04840000     -33.67240000     -71.12260000
H      -47.43560000     -33.88860000     -70.15280000
H      -46.06230000     -33.32320000     -70.89790000
C      -46.98450000     -35.00680000     -71.87220000
C      -48.11710000     -35.72160000     -72.15500000
C      -45.79130000     -35.78280000     -72.09130000
H      -49.16110000     -35.29110000     -72.13580000
C      -46.10020000     -37.03120000     -72.60310000
C      -44.35540000     -35.54650000     -71.90620000
C      -43.69730000     -36.65390000     -72.31600000
S      -47.81320000     -37.28890000     -72.78450000
S      -44.72500000     -37.95470000     -73.00770000
H      -42.65980000     -36.77490000     -72.41800000
