40
Properties=species:S:1:pos:R:3 #=T CELL(abcABC):=T 1.889726e+02=T 90.00000=T Traj:=T positionsangstrom=T Step:=T 0=T Bead:=T pbc="F F F"
C      -44.28090000     -35.31410000     -67.72090000
C      -43.78500000     -35.17850000     -69.02210000
C      -43.18160000     -33.98490000     -69.37780000
C      -43.20920000     -32.85440000     -68.47210000
C      -43.92310000     -32.95940000     -67.26650000
C      -44.45130000     -34.21480000     -66.87220000
H      -44.67880000     -36.23800000     -67.28640000
H      -42.65710000     -33.60480000     -70.24930000
H      -43.94460000     -32.01280000     -66.62530000
H      -44.88540000     -34.47370000     -65.95290000
C      -42.66110000     -31.47320000     -68.79020000
H      -41.54740000     -31.39650000     -68.98730000
H      -42.97260000     -30.79300000     -68.00190000
C      -43.73080000     -36.36470000     -69.89000000
H      -42.73500000     -36.60280000     -70.07210000
H      -44.22910000     -37.23870000     -69.50300000
S      -43.44590000     -30.64970000     -70.26450000
S      -44.43350000     -35.99490000     -71.53320000
C      -45.26680000     -30.73140000     -70.06360000
H      -45.38210000     -30.61670000     -68.92540000
H      -45.63160000     -29.91260000     -70.58350000
C      -46.17700000     -36.38030000     -71.23870000
H      -46.28150000     -36.85600000     -70.26800000
H      -46.54430000     -37.12400000     -71.97340000
C      -47.16400000     -35.17880000     -71.30030000
H      -48.09320000     -35.63590000     -71.02380000
H      -47.05640000     -34.45710000     -70.50560000
C      -45.96570000     -31.99610000     -70.55320000
H      -47.01680000     -31.88850000     -70.21220000
H      -45.49440000     -32.81520000     -70.11100000
C      -46.07940000     -32.06850000     -72.06770000
C      -45.76080000     -30.94190000     -72.80960000
C      -46.70430000     -33.15330000     -72.87280000
H      -45.13510000     -30.08550000     -72.57550000
C      -46.78680000     -32.76260000     -74.20930000
C      -47.25950000     -34.49640000     -72.63690000
C      -47.98940000     -34.91190000     -73.67300000
S      -46.10880000     -31.18680000     -74.52370000
S      -47.75550000     -33.95110000     -75.16640000
H      -48.58650000     -35.80470000     -73.67170000
