40
Properties=species:S:1:pos:R:3 #=T CELL(abcABC):=T 1.889726e+02=T 90.00000=T Traj:=T positionsangstrom=T Step:=T 0=T Bead:=T pbc="F F F"
C      -43.49020000     -30.10990000     -69.15750000
C      -43.52420000     -30.57750000     -70.52300000
C      -44.70330000     -30.49570000     -71.27880000
C      -45.83170000     -29.84850000     -70.72440000
C      -45.80570000     -29.45880000     -69.39390000
C      -44.60110000     -29.53850000     -68.60860000
H      -42.54560000     -30.07020000     -68.66200000
H      -44.72000000     -30.68360000     -72.34610000
H      -46.67130000     -28.91140000     -68.98500000
H      -44.60120000     -29.03600000     -67.64430000
C      -47.15730000     -29.73060000     -71.46660000
H      -47.02610000     -29.53300000     -72.55770000
H      -47.70010000     -28.80050000     -71.17530000
C      -42.26850000     -31.12750000     -71.13040000
H      -42.31040000     -31.39730000     -72.17510000
H      -41.49980000     -30.38730000     -70.95210000
S      -48.37740000     -30.97960000     -70.93170000
S      -41.79780000     -32.69660000     -70.23720000
C      -47.95610000     -32.56140000     -71.83230000
H      -48.86820000     -33.11330000     -71.68110000
H      -47.92080000     -32.28130000     -72.90420000
C      -43.23310000     -33.78030000     -70.40540000
H      -44.13510000     -33.53610000     -69.81160000
H      -42.91000000     -34.73880000     -69.87620000
C      -43.49660000     -34.00670000     -71.89760000
H      -44.00630000     -33.13350000     -72.41390000
H      -42.55090000     -34.02090000     -72.43230000
C      -46.80000000     -33.33120000     -71.24570000
H      -46.82870000     -33.47860000     -70.16200000
H      -45.84250000     -32.76670000     -71.53910000
C      -46.84340000     -34.73500000     -71.84180000
C      -47.97860000     -35.50880000     -71.92780000
C      -45.57980000     -35.53510000     -72.01590000
H      -49.01550000     -35.16480000     -71.93620000
C      -45.92400000     -36.85540000     -72.39020000
C      -44.19610000     -35.33660000     -72.12560000
C      -43.47580000     -36.46880000     -72.55560000
S      -47.58190000     -37.14910000     -72.40080000
S      -44.59310000     -37.87950000     -72.80460000
H      -42.43340000     -36.45210000     -72.72000000
