40
Properties=species:S:1:pos:R:3 #=T CELL(abcABC):=T 1.889726e+02=T 90.00000=T Traj:=T positionsangstrom=T Step:=T 0=T Bead:=T pbc="F F F"
C      -41.84820000     -32.83920000     -71.99640000
C      -42.24770000     -34.06240000     -71.42660000
C      -42.65730000     -35.05490000     -72.26430000
C      -42.93940000     -34.77200000     -73.59740000
C      -42.58760000     -33.51420000     -74.08720000
C      -41.89610000     -32.62270000     -73.38970000
H      -41.41250000     -32.07350000     -71.28310000
H      -42.86660000     -35.98460000     -71.81990000
H      -42.87230000     -33.31570000     -75.14750000
H      -41.53930000     -31.74500000     -73.84960000
C      -43.65930000     -35.87700000     -74.39100000
H      -43.16390000     -36.84140000     -74.37050000
H      -43.81000000     -35.61640000     -75.42770000
C      -42.16450000     -34.27650000     -69.90500000
H      -42.15890000     -35.32180000     -69.68900000
H      -41.26130000     -33.84940000     -69.54250000
S      -45.27600000     -36.29480000     -73.67730000
S      -43.61870000     -33.63460000     -68.92560000
C      -46.04920000     -34.69080000     -73.33350000
H      -45.22990000     -34.05160000     -73.12970000
H      -46.37910000     -34.26060000     -74.30020000
C      -44.91390000     -34.77080000     -69.47010000
H      -44.64880000     -35.87700000     -69.28070000
H      -44.89560000     -34.81530000     -70.52340000
C      -46.25160000     -34.41080000     -68.77860000
H      -46.96850000     -35.11040000     -69.03980000
H      -46.04360000     -34.59410000     -67.72860000
C      -47.16710000     -34.60620000     -72.27990000
H      -47.12920000     -35.35280000     -71.43960000
H      -48.08400000     -34.80380000     -72.75080000
C      -47.24460000     -33.18100000     -71.83800000
C      -47.63000000     -32.21440000     -72.76350000
C      -47.22680000     -32.61460000     -70.49230000
H      -47.75210000     -32.32530000     -73.86650000
C      -47.53680000     -31.22740000     -70.41320000
C      -46.81530000     -33.04520000     -69.14290000
C      -47.08650000     -32.12810000     -68.14620000
S      -47.96720000     -30.61730000     -71.92920000
S      -47.60890000     -30.54820000     -68.82340000
H      -46.81350000     -32.25900000     -67.09300000
