40
Properties=species:S:1:pos:R:3 #=T CELL(abcABC):=T 1.889726e+02=T 90.00000=T Traj:=T positionsangstrom=T Step:=T 0=T Bead:=T pbc="F F F"
C      -44.11780000     -30.96470000     -68.71680000
C      -44.00720000     -30.57610000     -70.06960000
C      -45.16070000     -30.46160000     -70.83790000
C      -46.44590000     -30.34160000     -70.27420000
C      -46.52650000     -30.66990000     -68.90130000
C      -45.36880000     -31.07380000     -68.16310000
H      -43.23830000     -30.94570000     -68.03950000
H      -44.95120000     -30.13170000     -71.86290000
H      -47.40750000     -30.54750000     -68.22290000
H      -45.37610000     -31.30140000     -67.09050000
C      -47.66810000     -29.97800000     -71.10580000
H      -47.32730000     -29.48470000     -72.00970000
H      -48.24380000     -29.14250000     -70.67240000
C      -42.69880000     -30.54880000     -70.89730000
H      -42.93410000     -30.47260000     -71.96510000
H      -42.17340000     -29.55720000     -70.73690000
S      -48.83590000     -31.38610000     -71.35970000
S      -41.49800000     -31.98510000     -70.70300000
C      -47.80070000     -32.66830000     -72.12520000
H      -48.55180000     -33.46510000     -72.42540000
H      -47.42000000     -32.26940000     -73.05600000
C      -42.64430000     -33.44460000     -70.95670000
H      -43.23230000     -33.54380000     -70.02420000
H      -41.99300000     -34.37080000     -70.93490000
C      -43.55410000     -33.44870000     -72.24090000
H      -44.37480000     -32.77860000     -72.10440000
H      -43.03820000     -33.00560000     -73.10300000
C      -46.75420000     -33.37040000     -71.23740000
H      -47.17520000     -33.45480000     -70.28260000
H      -45.78010000     -32.84840000     -71.16910000
C      -46.57740000     -34.79220000     -71.56440000
C      -47.52370000     -35.72610000     -71.36870000
C      -45.35710000     -35.32830000     -72.19450000
H      -48.43820000     -35.51190000     -70.88550000
C      -45.55520000     -36.65760000     -72.51230000
C      -44.03710000     -34.83570000     -72.45630000
C      -43.22630000     -35.81880000     -72.96920000
S      -47.01770000     -37.29080000     -71.88820000
S      -44.11840000     -37.37380000     -73.21180000
H      -42.21250000     -35.71320000     -73.30470000
