40
Properties=species:S:1:pos:R:3 #=T CELL(abcABC):=T 1.889726e+02=T 90.00000=T Traj:=T positionsangstrom=T Step:=T 0=T Bead:=T pbc="F F F"
C      -43.66100000     -30.82930000     -68.97330000
C      -43.60370000     -30.77140000     -70.39060000
C      -44.76420000     -30.46530000     -71.07440000
C      -45.99490000     -30.23420000     -70.40250000
C      -46.04790000     -30.43020000     -69.00380000
C      -44.87280000     -30.69790000     -68.28160000
H      -42.82650000     -31.24830000     -68.40530000
H      -44.65510000     -30.35880000     -72.18460000
H      -46.91740000     -30.23780000     -68.47460000
H      -44.97920000     -30.73960000     -67.15690000
C      -47.11940000     -29.87000000     -71.32390000
H      -46.79470000     -29.87060000     -72.35640000
H      -47.40460000     -28.82910000     -70.98660000
C      -42.32580000     -30.81110000     -71.14350000
H      -42.51390000     -30.65590000     -72.24360000
H      -41.56170000     -30.09240000     -70.84160000
S      -48.64760000     -30.94340000     -71.15890000
S      -41.35200000     -32.37200000     -70.92190000
C      -48.27440000     -32.62760000     -71.90400000
H      -49.05100000     -33.31190000     -71.46680000
H      -48.30310000     -32.59040000     -72.95650000
C      -42.72570000     -33.70640000     -70.82320000
H      -43.39310000     -33.57410000     -70.00870000
H      -42.26540000     -34.75150000     -70.68210000
C      -43.50810000     -33.71970000     -72.12700000
H      -44.27260000     -32.88690000     -72.23510000
H      -42.78950000     -33.54920000     -72.90190000
C      -46.89250000     -33.16970000     -71.39370000
H      -46.82320000     -33.04680000     -70.27040000
H      -46.14590000     -32.62340000     -71.87620000
C      -46.79680000     -34.62930000     -71.68310000
C      -47.88610000     -35.47050000     -71.59890000
C      -45.57260000     -35.32680000     -71.93930000
H      -48.90490000     -35.20440000     -71.51220000
C      -45.86460000     -36.66850000     -72.17770000
C      -44.14400000     -35.03170000     -72.22850000
C      -43.50230000     -36.15950000     -72.68410000
S      -47.53160000     -37.09060000     -72.10380000
S      -44.54750000     -37.62420000     -72.71770000
H      -42.38010000     -36.17800000     -72.91810000
