40
Properties=species:S:1:pos:R:3 #=T CELL(abcABC):=T 1.889726e+02=T 90.00000=T Traj:=T positionsangstrom=T Step:=T 0=T Bead:=T pbc="F F F"
C      -41.77100000     -32.93420000     -71.86460000
C      -42.29970000     -34.12670000     -71.25720000
C      -42.89750000     -35.02710000     -72.04490000
C      -42.99210000     -34.86710000     -73.47820000
C      -42.39550000     -33.77190000     -74.01680000
C      -41.82570000     -32.76390000     -73.24140000
H      -41.35700000     -32.14470000     -71.18790000
H      -43.17410000     -35.98760000     -71.62340000
H      -42.45930000     -33.52780000     -75.10260000
H      -41.37700000     -31.90060000     -73.71300000
C      -43.71190000     -35.86560000     -74.33050000
H      -43.05590000     -36.74270000     -74.54670000
H      -43.93230000     -35.36700000     -75.29630000
C      -42.16090000     -34.35460000     -69.85750000
H      -42.11610000     -35.43960000     -69.54860000
H      -41.27980000     -33.77050000     -69.49660000
S      -45.30730000     -36.37030000     -73.50850000
S      -43.62270000     -33.62520000     -68.88400000
C      -45.89410000     -34.63640000     -73.29870000
H      -45.01920000     -34.16620000     -72.86870000
H      -46.31670000     -34.14100000     -74.21840000
C      -45.05130000     -34.75620000     -69.48930000
H      -44.81080000     -35.70390000     -69.11860000
H      -44.99640000     -34.57580000     -70.56420000
C      -46.39270000     -34.34580000     -68.86270000
H      -47.16550000     -35.13350000     -69.29470000
H      -46.46500000     -34.41360000     -67.76570000
C      -46.98350000     -34.55360000     -72.20430000
H      -46.48880000     -35.08300000     -71.38890000
H      -47.88980000     -35.04070000     -72.64180000
C      -47.25020000     -33.13570000     -71.91680000
C      -47.79210000     -32.21130000     -72.80360000
C      -47.24780000     -32.57250000     -70.57580000
H      -47.90530000     -32.26200000     -73.86320000
C      -47.61390000     -31.24210000     -70.55460000
C      -46.87830000     -32.98830000     -69.27150000
C      -46.97060000     -32.01490000     -68.32770000
S      -47.93580000     -30.58880000     -72.14300000
S      -47.55180000     -30.43590000     -68.95990000
H      -46.45030000     -32.07830000     -67.39840000
