40
Properties=species:S:1:pos:R:3 #=T CELL(abcABC):=T 1.889726e+02=T 90.00000=T Traj:=T positionsangstrom=T Step:=T 0=T Bead:=T pbc="F F F"
C      -44.39400000     -35.36200000     -67.66430000
C      -43.81650000     -35.25250000     -68.92120000
C      -43.18000000     -34.04880000     -69.27580000
C      -43.21880000     -32.95910000     -68.39660000
C      -43.90790000     -33.03670000     -67.16100000
C      -44.40570000     -34.28340000     -66.77610000
H      -44.85010000     -36.32650000     -67.30340000
H      -42.63020000     -33.88610000     -70.25920000
H      -44.08660000     -32.12310000     -66.64360000
H      -44.84510000     -34.39610000     -65.77330000
C      -42.63780000     -31.62500000     -68.92020000
H      -41.63760000     -31.80550000     -69.23210000
H      -42.44720000     -30.96350000     -68.09950000
C      -43.79770000     -36.40230000     -69.90130000
H      -42.70130000     -36.59150000     -70.10830000
H      -44.11960000     -37.41730000     -69.49430000
S      -43.52550000     -30.71460000     -70.29810000
S      -44.59190000     -35.87520000     -71.46430000
C      -45.27080000     -30.84710000     -69.93650000
H      -45.42800000     -31.01430000     -68.89090000
H      -45.78040000     -29.87490000     -70.13000000
C      -46.39570000     -36.35360000     -71.31760000
H      -46.45110000     -36.96450000     -70.40870000
H      -46.69570000     -36.80780000     -72.24740000
C      -47.23260000     -35.02790000     -71.19430000
H      -48.28330000     -35.33580000     -70.97970000
H      -46.93980000     -34.32240000     -70.42720000
C      -45.86000000     -32.02940000     -70.66080000
H      -46.88560000     -32.13110000     -70.22670000
H      -45.24970000     -32.98380000     -70.34900000
C      -46.05930000     -31.92680000     -72.12720000
C      -45.68920000     -30.88770000     -72.96640000
C      -46.70320000     -32.99790000     -72.85230000
H      -45.25560000     -29.95910000     -72.75070000
C      -46.79420000     -32.73080000     -74.24900000
C      -47.20810000     -34.30490000     -72.56890000
C      -47.73790000     -34.85330000     -73.67880000
S      -46.08840000     -31.21480000     -74.67590000
S      -47.58150000     -33.95190000     -75.13240000
H      -47.99990000     -35.91350000     -73.76630000
