40
Properties=species:S:1:pos:R:3 #=T CELL(abcABC):=T 1.889726e+02=T 90.00000=T Traj:=T positionsangstrom=T Step:=T 0=T Bead:=T pbc="F F F"
C      -41.62270000     -33.79650000     -71.28560000
C      -42.35220000     -34.72770000     -70.52640000
C      -43.06920000     -35.74190000     -71.16170000
C      -43.12680000     -35.75360000     -72.58730000
C      -42.35240000     -34.86440000     -73.39280000
C      -41.56420000     -33.94710000     -72.70310000
H      -41.12350000     -32.97620000     -70.76560000
H      -43.64150000     -36.54740000     -70.61860000
H      -42.42580000     -34.95870000     -74.50550000
H      -40.98820000     -33.32390000     -73.35180000
C      -43.88430000     -36.83230000     -73.27010000
H      -43.55590000     -37.84370000     -72.93820000
H      -43.74740000     -36.63010000     -74.35540000
C      -42.39970000     -34.37920000     -69.06830000
H      -42.47080000     -35.29990000     -68.46880000
H      -41.44410000     -33.86670000     -68.76650000
S      -45.63710000     -36.69310000     -72.85600000
S      -43.79870000     -33.28440000     -68.53880000
C      -46.23000000     -34.96410000     -73.23670000
H      -45.31330000     -34.38540000     -73.15980000
H      -46.64620000     -34.95810000     -74.25590000
C      -45.16250000     -34.14490000     -69.27520000
H      -45.29190000     -35.14380000     -68.95850000
H      -45.12060000     -34.28080000     -70.34380000
C      -46.51440000     -33.44070000     -68.87150000
H      -47.37020000     -34.10490000     -69.12190000
H      -46.59540000     -33.25750000     -67.74110000
C      -47.32940000     -34.51040000     -72.12320000
H      -47.00040000     -34.83230000     -71.13390000
H      -48.29030000     -35.03480000     -72.31230000
C      -47.42340000     -32.97530000     -72.18490000
C      -47.82210000     -32.30700000     -73.33420000
C      -47.08040000     -32.05250000     -71.07370000
H      -48.15990000     -32.77770000     -74.26600000
C      -47.27030000     -30.74770000     -71.54580000
C      -46.73490000     -32.13230000     -69.67130000
C      -46.72390000     -30.92040000     -69.05530000
S      -47.83550000     -30.60490000     -73.17670000
S      -46.83710000     -29.55340000     -70.26490000
H      -46.54610000     -30.72690000     -68.00830000
