40
Properties=species:S:1:pos:R:3 #=T CELL(abcABC):=T 1.889726e+02=T 90.00000=T Traj:=T positionsangstrom=T Step:=T 0=T Bead:=T pbc="F F F"
C      -41.52580000     -34.12780000     -71.56970000
C      -42.36970000     -34.81260000     -70.68390000
C      -43.25270000     -35.77120000     -71.16930000
C      -43.19550000     -36.00950000     -72.56620000
C      -42.37920000     -35.34920000     -73.45950000
C      -41.55140000     -34.28940000     -72.93380000
H      -40.80530000     -33.32740000     -71.18730000
H      -43.94550000     -36.37150000     -70.50150000
H      -42.38100000     -35.64830000     -74.52200000
H      -40.84860000     -33.83760000     -73.67850000
C      -44.21500000     -37.01340000     -73.13700000
H      -43.96720000     -37.97410000     -72.75800000
H      -44.11710000     -37.01320000     -74.24480000
C      -42.29130000     -34.32230000     -69.19640000
H      -42.17130000     -35.26190000     -68.53110000
H      -41.45050000     -33.66840000     -68.99560000
S      -45.88010000     -36.67230000     -72.38730000
S      -43.81960000     -33.32780000     -68.63310000
C      -45.94030000     -34.84240000     -72.57440000
H      -45.14730000     -34.35210000     -71.93470000
H      -45.71870000     -34.63940000     -73.65260000
C      -45.39310000     -34.20130000     -69.21530000
H      -45.45270000     -35.15710000     -68.72990000
H      -45.36290000     -34.24060000     -70.29680000
C      -46.66250000     -33.39010000     -68.86210000
H      -47.64420000     -33.86000000     -69.00520000
H      -46.58580000     -33.14130000     -67.83850000
C      -47.28890000     -34.31790000     -72.23570000
H      -47.48410000     -34.55960000     -71.21940000
H      -48.02450000     -34.69280000     -72.85860000
C      -47.34340000     -32.83720000     -72.31730000
C      -47.50540000     -32.13390000     -73.48510000
C      -47.13610000     -31.95730000     -71.19450000
H      -47.72050000     -32.60530000     -74.41820000
C      -47.19620000     -30.60980000     -71.58550000
C      -46.83890000     -32.07580000     -69.79270000
C      -46.52250000     -30.85760000     -69.24190000
S      -47.63550000     -30.38320000     -73.21390000
S      -46.81620000     -29.49530000     -70.29650000
H      -46.19180000     -30.67150000     -68.25810000
