40
Properties=species:S:1:pos:R:3 #=T CELL(abcABC):=T 1.889726e+02=T 90.00000=T Traj:=T positionsangstrom=T Step:=T 0=T Bead:=T pbc="F F F"
C      -44.43960000     -30.27400000     -68.44340000
C      -44.19980000     -30.37930000     -69.85070000
C      -45.24710000     -30.29660000     -70.81750000
C      -46.60690000     -30.22750000     -70.33480000
C      -46.78140000     -30.23280000     -68.95610000
C      -45.73870000     -30.04280000     -68.02730000
H      -43.49500000     -30.37350000     -67.84580000
H      -45.21960000     -30.40180000     -71.90690000
H      -47.82330000     -30.20130000     -68.70100000
H      -46.01030000     -29.90500000     -67.02390000
C      -47.84690000     -30.27400000     -71.28160000
H      -47.45160000     -30.17990000     -72.33970000
H      -48.50820000     -29.44370000     -71.03130000
C      -42.76630000     -30.40560000     -70.38700000
H      -42.72770000     -30.21620000     -71.43050000
H      -42.11690000     -29.53120000     -69.91510000
S      -48.81580000     -31.82720000     -71.23600000
S      -42.03180000     -32.11380000     -69.99430000
C      -47.69990000     -33.15700000     -71.87470000
H      -48.34970000     -33.85980000     -72.41930000
H      -47.01590000     -32.71450000     -72.60260000
C      -43.40780000     -33.28440000     -70.55500000
H      -44.21680000     -33.16740000     -69.83380000
H      -43.01840000     -34.27960000     -70.45260000
C      -43.76900000     -33.17630000     -72.06470000
H      -44.54990000     -32.38380000     -72.25080000
H      -42.90040000     -32.85230000     -72.66430000
C      -46.81140000     -34.00180000     -70.88620000
H      -47.42440000     -34.36880000     -70.03820000
H      -45.88860000     -33.45170000     -70.54630000
C      -46.44410000     -35.22140000     -71.62490000
C      -47.13930000     -36.39750000     -71.61700000
C      -45.24660000     -35.38900000     -72.37940000
H      -48.11830000     -36.50220000     -71.13820000
C      -45.08060000     -36.70220000     -72.86100000
C      -44.05290000     -34.58470000     -72.61180000
C      -43.09670000     -35.26480000     -73.29730000
S      -46.41780000     -37.69220000     -72.54220000
S      -43.59900000     -36.92470000     -73.72130000
H      -42.19420000     -34.70770000     -73.80660000
