40
Properties=species:S:1:pos:R:3 #=T CELL(abcABC):=T 1.889726e+02=T 90.00000=T Traj:=T positionsangstrom=T Step:=T 0=T Bead:=T pbc="F F F"
C      -44.19610000     -30.72010000     -68.81200000
C      -44.14750000     -30.37830000     -70.18300000
C      -45.33510000     -30.23210000     -70.89100000
C      -46.59220000     -30.26340000     -70.22160000
C      -46.62780000     -30.46360000     -68.84600000
C      -45.35490000     -30.54420000     -68.17170000
H      -43.27200000     -30.98930000     -68.31930000
H      -45.28370000     -30.14910000     -72.03890000
H      -47.56290000     -30.38840000     -68.34030000
H      -45.35020000     -30.60910000     -67.09340000
C      -47.84920000     -29.98830000     -70.91160000
H      -47.76560000     -29.38720000     -71.83720000
H      -48.65100000     -29.59990000     -70.26310000
C      -42.80390000     -30.45860000     -70.88720000
H      -42.82190000     -30.48630000     -72.01260000
H      -42.22140000     -29.57870000     -70.72520000
S      -48.67530000     -31.50240000     -71.46050000
S      -41.76920000     -31.88270000     -70.39820000
C      -47.39290000     -32.74430000     -71.98670000
H      -47.92270000     -33.33170000     -72.74880000
H      -46.45440000     -32.27620000     -72.46880000
C      -43.01060000     -33.18640000     -70.72170000
H      -43.87820000     -32.93650000     -70.09050000
H      -42.62400000     -34.10840000     -70.21010000
C      -43.43260000     -33.50150000     -72.18860000
H      -44.22500000     -32.81280000     -72.54740000
H      -42.60870000     -33.35870000     -72.81520000
C      -46.79280000     -33.68890000     -70.85410000
H      -47.59070000     -33.82830000     -70.15050000
H      -45.92650000     -33.27410000     -70.44660000
C      -46.52860000     -35.03450000     -71.51920000
C      -47.48760000     -36.04290000     -71.44740000
C      -45.27480000     -35.48330000     -72.08760000
H      -48.53990000     -35.98100000     -71.09790000
C      -45.31640000     -36.80100000     -72.51300000
C      -43.98890000     -34.89970000     -72.41300000
C      -43.16690000     -35.78130000     -73.08660000
S      -46.93910000     -37.51870000     -72.25390000
S      -43.94870000     -37.31230000     -73.40440000
H      -42.27020000     -35.58380000     -73.53280000
