40
Properties=species:S:1:pos:R:3 #=T CELL(abcABC):=T 1.889726e+02=T 90.00000=T Traj:=T positionsangstrom=T Step:=T 0=T Bead:=T pbc="F F F"
C      -41.73330000     -33.34470000     -71.34380000
C      -42.31400000     -34.45480000     -70.71610000
C      -42.86910000     -35.45220000     -71.51030000
C      -42.94540000     -35.34970000     -72.88230000
C      -42.27780000     -34.23520000     -73.45140000
C      -41.62490000     -33.22050000     -72.70940000
H      -41.24380000     -32.64370000     -70.75310000
H      -43.30680000     -36.39760000     -71.06130000
H      -42.31480000     -34.14380000     -74.51140000
H      -41.13210000     -32.31580000     -73.12140000
C      -43.69040000     -36.37930000     -73.70250000
H      -43.16710000     -37.36980000     -73.73340000
H      -43.67790000     -36.03510000     -74.73080000
C      -42.40170000     -34.64510000     -69.20050000
H      -42.37540000     -35.70460000     -68.95600000
H      -41.52210000     -34.21120000     -68.66400000
S      -45.43160000     -36.52200000     -73.06580000
S      -43.72790000     -33.60220000     -68.51390000
C      -45.74340000     -34.66390000     -73.05040000
H      -45.00600000     -34.21740000     -72.38750000
H      -45.64430000     -34.25990000     -74.03040000
C      -45.13020000     -34.49340000     -69.18500000
H      -45.17360000     -35.54530000     -68.67690000
H      -44.96290000     -34.68120000     -70.22450000
C      -46.54900000     -33.84790000     -68.98130000
H      -47.32190000     -34.45010000     -69.45320000
H      -46.78840000     -33.81120000     -67.91220000
C      -47.16710000     -34.55730000     -72.34320000
H      -46.99680000     -35.10930000     -71.42660000
H      -47.74420000     -35.07370000     -73.05480000
C      -47.58380000     -33.09550000     -72.17720000
C      -48.01550000     -32.30220000     -73.23300000
C      -47.39890000     -32.30140000     -70.95940000
H      -48.25450000     -32.64310000     -74.20880000
C      -47.58830000     -30.92080000     -71.23550000
C      -46.69660000     -32.52640000     -69.68060000
C      -46.46630000     -31.29110000     -69.04330000
S      -48.11320000     -30.61270000     -72.86160000
S      -47.10460000     -29.87190000     -69.94710000
H      -46.10530000     -31.07050000     -68.04970000
