40
Properties=species:S:1:pos:R:3 #=T CELL(abcABC):=T 1.889726e+02=T 90.00000=T Traj:=T positionsangstrom=T Step:=T 0=T Bead:=T pbc="F F F"
C      -41.59130000     -33.04820000     -71.67260000
C      -42.16430000     -34.16680000     -70.91640000
C      -42.75500000     -35.29060000     -71.61640000
C      -42.88120000     -35.16060000     -72.98670000
C      -42.44550000     -34.07460000     -73.71500000
C      -41.83650000     -33.00260000     -73.02930000
H      -41.22470000     -32.13180000     -71.11170000
H      -43.09050000     -36.17950000     -71.15200000
H      -42.75000000     -34.01540000     -74.84850000
H      -41.61930000     -32.11210000     -73.55860000
C      -43.58540000     -36.33150000     -73.76330000
H      -43.09150000     -37.27730000     -73.53030000
H      -43.48960000     -36.12030000     -74.80110000
C      -42.13050000     -34.19890000     -69.39820000
H      -41.95660000     -35.26860000     -69.16540000
H      -41.31860000     -33.59580000     -68.97750000
S      -45.36620000     -36.49310000     -73.39220000
S      -43.68620000     -33.53680000     -68.67970000
C      -45.99350000     -34.73590000     -73.39190000
H      -45.27970000     -33.99900000     -73.13260000
H      -46.27730000     -34.43150000     -74.41380000
C      -44.93180000     -34.56660000     -69.55350000
H      -44.71050000     -35.66030000     -69.28250000
H      -44.91790000     -34.47850000     -70.67020000
C      -46.36850000     -34.22060000     -69.09670000
H      -47.10320000     -34.96590000     -69.32250000
H      -46.32320000     -34.16950000     -67.94880000
C      -47.14730000     -34.49640000     -72.45390000
H      -46.98320000     -35.03570000     -71.52140000
H      -48.03210000     -34.95600000     -72.91430000
C      -47.40700000     -33.06810000     -72.08940000
C      -47.94800000     -32.18250000     -73.02460000
C      -47.24520000     -32.43470000     -70.81360000
H      -48.19460000     -32.45000000     -74.09250000
C      -47.67610000     -31.06590000     -70.83540000
C      -46.87340000     -32.84370000     -69.47590000
C      -46.94150000     -31.77110000     -68.58280000
S      -48.14730000     -30.53440000     -72.44870000
S      -47.26460000     -30.23700000     -69.39520000
H      -46.86710000     -31.74060000     -67.50640000
