40
Properties=species:S:1:pos:R:3 #=T CELL(abcABC):=T 1.889726e+02=T 90.00000=T Traj:=T positionsangstrom=T Step:=T 0=T Bead:=T pbc="F F F"
C      -44.84730000     -30.44060000     -68.26520000
C      -44.57130000     -30.50690000     -69.66460000
C      -45.69950000     -30.47050000     -70.52320000
C      -47.00430000     -30.72490000     -69.94180000
C      -47.25520000     -30.80360000     -68.53360000
C      -46.11620000     -30.70580000     -67.67760000
H      -43.91900000     -30.31340000     -67.62180000
H      -45.47350000     -30.42600000     -71.53610000
H      -48.24460000     -30.93410000     -68.08010000
H      -46.21010000     -30.59100000     -66.54520000
C      -48.21740000     -30.65740000     -70.91060000
H      -47.85280000     -30.33960000     -71.87800000
H      -48.82210000     -29.92780000     -70.43680000
C      -43.16000000     -30.40240000     -70.13620000
H      -43.02170000     -30.37380000     -71.18210000
H      -42.70440000     -29.41860000     -69.72530000
S      -49.24260000     -32.23310000     -70.97860000
S      -42.15350000     -31.82040000     -69.50780000
C      -48.29020000     -33.49850000     -72.00230000
H      -49.00930000     -34.32470000     -72.03650000
H      -48.02140000     -33.04040000     -72.92640000
C      -42.98150000     -33.26010000     -70.28610000
H      -43.91220000     -33.39260000     -69.65190000
H      -42.33710000     -34.11920000     -70.10700000
C      -43.48520000     -33.12920000     -71.75190000
H      -44.36460000     -32.48070000     -71.79870000
H      -42.69950000     -32.67330000     -72.41610000
C      -46.92470000     -33.94180000     -71.42780000
H      -47.15940000     -34.29410000     -70.38960000
H      -46.24960000     -33.13050000     -71.35920000
C      -46.24830000     -35.06740000     -72.21160000
C      -46.97530000     -36.11920000     -72.74690000
C      -44.88320000     -35.22840000     -72.53140000
H      -48.00620000     -36.11310000     -72.67230000
C      -44.63500000     -36.37410000     -73.27830000
C      -43.64600000     -34.47180000     -72.34270000
C      -42.53650000     -35.15100000     -72.76310000
S      -46.08090000     -37.20710000     -73.73770000
S      -42.89960000     -36.61270000     -73.68840000
H      -41.40800000     -34.85890000     -72.69660000
