40
Properties=species:S:1:pos:R:3 #=T CELL(abcABC):=T 1.889726e+02=T 90.00000=T Traj:=T positionsangstrom=T Step:=T 0=T Bead:=T pbc="F F F"
C      -41.80750000     -34.17200000     -71.32190000
C      -42.41010000     -34.94750000     -70.28610000
C      -43.30160000     -35.98340000     -70.64250000
C      -43.55240000     -36.37970000     -71.98230000
C      -42.79960000     -35.71180000     -72.96410000
C      -42.00640000     -34.57500000     -72.69580000
H      -41.24820000     -33.35020000     -70.97770000
H      -43.68250000     -36.52220000     -69.82090000
H      -42.98080000     -35.99450000     -74.00490000
H      -41.61390000     -34.07130000     -73.54510000
C      -44.60420000     -37.37000000     -72.32130000
H      -44.51110000     -38.27120000     -71.75110000
H      -44.57390000     -37.59990000     -73.37980000
C      -42.42040000     -34.54750000     -68.81900000
H      -42.66350000     -35.50420000     -68.29270000
H      -41.53560000     -34.05800000     -68.32120000
S      -46.37020000     -36.79360000     -71.87500000
S      -43.61920000     -33.12310000     -68.42430000
C      -46.35870000     -35.11370000     -72.58740000
H      -45.41390000     -34.63990000     -72.33570000
H      -46.42610000     -35.23230000     -73.67120000
C      -45.19870000     -33.63740000     -69.21860000
H      -45.33290000     -34.59470000     -68.74970000
H      -45.02420000     -33.78290000     -70.27180000
C      -46.34580000     -32.71660000     -69.03260000
H      -47.28210000     -33.42660000     -69.14630000
H      -46.18530000     -32.45970000     -68.00970000
C      -47.51500000     -34.29840000     -71.90200000
H      -47.51330000     -34.29630000     -70.78860000
H      -48.43310000     -34.77050000     -72.30910000
C      -47.26230000     -32.86230000     -72.42570000
C      -47.63530000     -32.41950000     -73.70740000
C      -46.98780000     -31.78050000     -71.48760000
H      -48.01640000     -33.09080000     -74.44410000
C      -46.85120000     -30.54560000     -72.19290000
C      -46.42250000     -31.62650000     -70.11330000
C      -46.11120000     -30.32800000     -69.81700000
S      -47.47020000     -30.69900000     -73.79170000
S      -46.22310000     -29.20890000     -71.20220000
H      -45.77690000     -29.91940000     -68.84750000
