40
Properties=species:S:1:pos:R:3 #=T CELL(abcABC):=T 1.889726e+02=T 90.00000=T Traj:=T positionsangstrom=T Step:=T 0=T Bead:=T pbc="F F F"
C      -41.62650000     -34.10180000     -71.64670000
C      -42.39740000     -34.64310000     -70.63030000
C      -43.15170000     -35.76020000     -70.84810000
C      -43.36260000     -36.17600000     -72.12500000
C      -42.64390000     -35.59250000     -73.17580000
C      -41.74440000     -34.59550000     -72.91160000
H      -40.97880000     -33.34050000     -71.49020000
H      -43.66730000     -36.12290000     -70.00920000
H      -42.83430000     -36.02560000     -74.15140000
H      -41.22270000     -34.10630000     -73.72990000
C      -44.34210000     -37.23590000     -72.57740000
H      -44.28090000     -38.22930000     -72.16560000
H      -44.26090000     -37.48360000     -73.58790000
C      -42.34040000     -34.13850000     -69.16980000
H      -42.24910000     -34.94770000     -68.43430000
H      -41.45860000     -33.46200000     -69.07480000
S      -46.11750000     -36.78600000     -72.32840000
S      -43.79340000     -33.02810000     -68.92870000
C      -46.20250000     -35.08170000     -72.94040000
H      -45.27710000     -34.51290000     -72.69360000
H      -46.29720000     -35.13360000     -74.06400000
C      -45.15830000     -34.10500000     -69.34670000
H      -45.12630000     -35.07960000     -68.73180000
H      -45.21790000     -34.42520000     -70.37620000
C      -46.47110000     -33.41640000     -69.06630000
H      -47.22240000     -34.10710000     -69.10610000
H      -46.49240000     -32.96820000     -68.09150000
C      -47.40890000     -34.34520000     -72.36380000
H      -47.59460000     -34.60700000     -71.37920000
H      -48.32980000     -34.58510000     -72.87950000
C      -47.30220000     -32.81490000     -72.37480000
C      -47.60780000     -32.07860000     -73.51820000
C      -47.09250000     -31.90200000     -71.27730000
H      -47.66350000     -32.33460000     -74.58710000
C      -47.10460000     -30.54920000     -71.53060000
C      -46.66180000     -32.08370000     -69.86690000
C      -46.37900000     -30.86410000     -69.27980000
S      -47.47410000     -30.31040000     -73.19720000
S      -46.58610000     -29.50530000     -70.28510000
H      -45.93420000     -30.72550000     -68.24150000
