40
Properties=species:S:1:pos:R:3 #=T CELL(abcABC):=T 1.889726e+02=T 90.00000=T Traj:=T positionsangstrom=T Step:=T 0=T Bead:=T pbc="F F F"
C      -45.84940000     -30.28000000     -74.66920000
C      -46.23380000     -30.62310000     -73.36510000
C      -46.83280000     -31.90000000     -73.20180000
C      -47.12980000     -32.77020000     -74.20780000
C      -46.62200000     -32.45400000     -75.46660000
C      -45.95780000     -31.24920000     -75.71690000
H      -45.49530000     -29.25820000     -74.79050000
H      -47.17640000     -32.09070000     -72.20400000
H      -46.75800000     -33.13690000     -76.27250000
H      -45.58950000     -31.11160000     -76.71240000
C      -47.95960000     -33.94440000     -74.04470000
H      -47.62130000     -34.85660000     -74.63000000
H      -48.89060000     -33.79090000     -74.61500000
C      -46.14120000     -29.64630000     -72.26780000
H      -45.92800000     -28.61920000     -72.68660000
H      -47.15050000     -29.59830000     -71.76220000
S      -48.50110000     -34.28200000     -72.37170000
S      -44.75330000     -29.93920000     -71.06690000
C      -47.03310000     -35.08190000     -71.53310000
H      -46.98510000     -36.13440000     -71.76080000
H      -46.15130000     -34.63060000     -71.95600000
C      -44.91830000     -31.61990000     -70.65380000
H      -45.98400000     -31.83720000     -70.63580000
H      -44.47490000     -31.74700000     -69.64750000
C      -44.17940000     -32.65500000     -71.49820000
H      -44.67610000     -33.03290000     -72.30970000
H      -43.28840000     -32.12210000     -71.80480000
C      -46.95240000     -34.80210000     -69.99380000
H      -47.83980000     -35.19170000     -69.53540000
H      -46.87510000     -33.72120000     -69.89000000
C      -45.61890000     -35.23570000     -69.50070000
C      -45.58940000     -36.19900000     -68.49670000
C      -44.27700000     -34.65880000     -69.75710000
H      -46.40390000     -36.68130000     -67.97110000
C      -43.34810000     -35.36450000     -69.01160000
C      -43.61120000     -33.78350000     -70.66560000
C      -42.26150000     -33.78030000     -70.47660000
S      -43.98110000     -36.46340000     -67.86360000
S      -41.70760000     -34.96840000     -69.19200000
H      -41.52470000     -33.12480000     -70.96370000
