40
Properties=species:S:1:pos:R:3 #=T CELL(abcABC):=T 1.889726e+02=T 90.00000=T Traj:=T positionsangstrom=T Step:=T 0=T Bead:=T pbc="F F F"
C      -44.49600000     -35.38770000     -67.64270000
C      -43.90420000     -35.28430000     -68.92300000
C      -43.29960000     -34.06360000     -69.33440000
C      -43.20890000     -32.95410000     -68.46610000
C      -43.66630000     -33.12780000     -67.16270000
C      -44.35500000     -34.33500000     -66.75910000
H      -44.93290000     -36.41640000     -67.49630000
H      -43.05190000     -33.98300000     -70.37700000
H      -43.73900000     -32.36610000     -66.35530000
H      -44.68140000     -34.45020000     -65.70030000
C      -42.60430000     -31.61660000     -68.87140000
H      -41.49920000     -31.59290000     -68.97920000
H      -42.88970000     -30.83630000     -68.14500000
C      -43.96410000     -36.41280000     -69.91840000
H      -42.97730000     -36.65980000     -70.30780000
H      -44.23400000     -37.40020000     -69.46200000
S      -43.26520000     -30.86080000     -70.44470000
S      -44.98740000     -36.13700000     -71.39980000
C      -45.07920000     -30.62540000     -70.01140000
H      -45.17780000     -30.40470000     -68.96050000
H      -45.32730000     -29.76830000     -70.53900000
C      -46.71930000     -36.24810000     -70.83660000
H      -46.61230000     -36.29040000     -69.72730000
H      -47.13730000     -37.09490000     -71.30600000
C      -47.57090000     -35.02610000     -71.28170000
H      -48.63730000     -35.39940000     -71.38990000
H      -47.50560000     -34.25150000     -70.49230000
C      -45.95020000     -31.85490000     -70.60850000
H      -46.93090000     -31.91520000     -70.21700000
H      -45.40470000     -32.78640000     -70.42800000
C      -46.08680000     -31.87350000     -72.06910000
C      -45.89580000     -30.77860000     -72.83010000
C      -46.47080000     -33.01950000     -72.90270000
H      -45.60990000     -29.80490000     -72.49420000
C      -46.52120000     -32.66240000     -74.26490000
C      -47.13160000     -34.35410000     -72.67910000
C      -47.50840000     -34.94060000     -73.82550000
S      -46.14480000     -31.00720000     -74.59990000
S      -47.27460000     -33.93710000     -75.21990000
H      -48.13370000     -35.82840000     -73.89350000
