40
Properties=species:S:1:pos:R:3 #=T CELL(abcABC):=T 1.889726e+02=T 90.00000=T Traj:=T positionsangstrom=T Step:=T 0=T Bead:=T pbc="F F F"
C      -45.03340000     -31.28750000     -67.62200000
C      -44.73510000     -30.73180000     -68.90340000
C      -45.77570000     -30.64480000     -69.79180000
C      -47.09600000     -31.00720000     -69.46460000
C      -47.32590000     -31.57640000     -68.22860000
C      -46.34080000     -31.62920000     -67.22150000
H      -44.21310000     -31.22190000     -66.91450000
H      -45.53030000     -30.21900000     -70.78310000
H      -48.42830000     -31.86570000     -68.11560000
H      -46.47750000     -31.96780000     -66.25680000
C      -48.14410000     -31.02340000     -70.55540000
H      -47.59010000     -30.96830000     -71.53520000
H      -48.85190000     -30.18620000     -70.52880000
C      -43.28680000     -30.32230000     -69.01490000
H      -43.09090000     -29.64430000     -69.81400000
H      -42.87550000     -30.08620000     -68.07760000
S      -49.19570000     -32.58570000     -70.61660000
S      -42.25200000     -31.87830000     -69.37110000
C      -48.34750000     -33.47390000     -72.06370000
H      -48.82380000     -34.40100000     -72.14450000
H      -48.63100000     -32.87780000     -72.95150000
C      -43.30290000     -33.09500000     -70.43260000
H      -44.31230000     -32.93960000     -69.96020000
H      -42.99790000     -34.08040000     -70.17740000
C      -43.29910000     -32.79100000     -71.90260000
H      -44.05340000     -31.97660000     -72.00980000
H      -42.35070000     -32.27250000     -72.25830000
C      -46.83800000     -33.63840000     -71.97410000
H      -46.42900000     -33.79780000     -70.94330000
H      -46.44120000     -32.67730000     -72.20720000
C      -46.23470000     -34.71020000     -72.82360000
C      -46.94470000     -35.70190000     -73.46650000
C      -44.75360000     -34.83760000     -73.00060000
H      -48.04790000     -35.75770000     -73.41870000
C      -44.50150000     -36.04000000     -73.74580000
C      -43.51790000     -34.08650000     -72.68020000
C      -42.44720000     -34.72850000     -73.28900000
S      -45.94300000     -36.93300000     -74.24720000
S      -42.78150000     -36.31530000     -74.04750000
H      -41.43770000     -34.50540000     -72.89440000
