40
Properties=species:S:1:pos:R:3 #=T CELL(abcABC):=T 1.889726e+02=T 90.00000=T Traj:=T positionsangstrom=T Step:=T 0=T Bead:=T pbc="F F F"
C      -48.30880000     -34.97790000     -69.47850000
C      -48.49750000     -34.84720000     -70.87390000
C      -48.49930000     -33.53860000     -71.44740000
C      -48.20570000     -32.40840000     -70.68810000
C      -47.83840000     -32.52330000     -69.31680000
C      -47.95910000     -33.81110000     -68.74800000
H      -48.12260000     -35.98960000     -69.07940000
H      -48.68010000     -33.35050000     -72.53100000
H      -47.48770000     -31.65510000     -68.67850000
H      -47.65900000     -33.96220000     -67.70640000
C      -48.26790000     -30.99050000     -71.31220000
H      -47.98980000     -30.33220000     -70.50030000
H      -49.29260000     -30.73360000     -71.63410000
C      -48.73060000     -36.14780000     -71.66170000
H      -49.06380000     -37.00520000     -70.98810000
H      -49.40320000     -36.09620000     -72.51750000
S      -47.23200000     -30.78260000     -72.82180000
S      -47.07500000     -36.55300000     -72.43550000
C      -45.55750000     -30.87950000     -71.94480000
H      -45.45520000     -29.79930000     -71.62970000
H      -45.69080000     -31.51490000     -71.09500000
C      -45.83950000     -35.75310000     -71.39280000
H      -45.02560000     -36.34400000     -71.56620000
H      -46.15390000     -35.73650000     -70.32780000
C      -45.36020000     -34.39760000     -71.82770000
H      -45.54460000     -34.24940000     -72.88660000
H      -46.13110000     -33.66040000     -71.40550000
C      -44.46880000     -31.29480000     -72.95790000
H      -44.31890000     -30.38230000     -73.59780000
H      -44.71910000     -32.16840000     -73.52870000
C      -43.20320000     -31.82110000     -72.30570000
C      -42.04900000     -31.08560000     -72.18510000
C      -43.10060000     -33.10100000     -71.56420000
H      -41.81350000     -30.15020000     -72.59920000
C      -41.92710000     -33.15560000     -70.87610000
C      -44.01380000     -34.21620000     -71.20550000
C      -43.50570000     -35.03950000     -70.24720000
S      -40.82910000     -31.93190000     -71.29080000
S      -41.76180000     -34.65000000     -69.94600000
H      -43.93110000     -35.80530000     -69.70570000
