40
Properties=species:S:1:pos:R:3 #=T CELL(abcABC):=T 1.889726e+02=T 90.00000=T Traj:=T positionsangstrom=T Step:=T 0=T Bead:=T pbc="F F F"
C      -45.82060000     -31.06570000     -75.03600000
C      -46.74180000     -31.44620000     -74.05810000
C      -46.91770000     -32.79180000     -73.77020000
C      -46.30210000     -33.80810000     -74.53780000
C      -45.39670000     -33.41240000     -75.50920000
C      -45.12960000     -32.03070000     -75.77260000
H      -45.78860000     -30.02960000     -75.38980000
H      -47.64990000     -33.18120000     -73.03970000
H      -44.71920000     -34.21800000     -76.02410000
H      -44.50410000     -31.62710000     -76.62660000
C      -46.39180000     -35.29220000     -74.30980000
H      -46.08800000     -35.77980000     -75.18700000
H      -47.41290000     -35.67230000     -74.17430000
C      -47.50270000     -30.47820000     -73.25500000
H      -47.58530000     -29.54920000     -73.83240000
H      -48.49610000     -30.83760000     -73.03100000
S      -45.39900000     -35.87090000     -72.80720000
S      -46.55490000     -29.82440000     -71.68860000
C      -43.82870000     -34.82200000     -72.97150000
H      -43.09840000     -35.60680000     -73.06570000
H      -43.75390000     -34.30070000     -73.94280000
C      -46.29130000     -31.26490000     -70.55930000
H      -46.44810000     -32.20800000     -71.08460000
H      -47.11010000     -31.08310000     -69.73830000
C      -44.89430000     -31.30830000     -69.86320000
H      -44.07720000     -31.19100000     -70.52930000
H      -44.71120000     -30.52500000     -69.12650000
C      -43.59570000     -33.88680000     -71.73040000
H      -44.31890000     -33.07630000     -71.91430000
H      -42.62170000     -33.42200000     -71.84070000
C      -43.82200000     -34.51070000     -70.40360000
C      -43.80500000     -35.86940000     -70.16220000
C      -44.32020000     -33.82130000     -69.19620000
H      -43.47020000     -36.67390000     -70.89390000
C      -44.44580000     -34.67500000     -68.12830000
C      -44.83440000     -32.50660000     -68.95250000
C      -45.20710000     -32.37710000     -67.64380000
S      -44.17830000     -36.35470000     -68.52790000
S      -45.13650000     -33.86190000     -66.76640000
H      -45.74970000     -31.57420000     -67.22630000
