40
Properties=species:S:1:pos:R:3 #=T CELL(abcABC):=T 1.889726e+02=T 90.00000=T Traj:=T positionsangstrom=T Step:=T 0=T Bead:=T pbc="F F F"
C      -44.34520000     -35.41480000     -67.63130000
C      -43.92410000     -35.34550000     -68.92600000
C      -43.33270000     -34.13650000     -69.41320000
C      -43.26780000     -33.00420000     -68.56320000
C      -43.82780000     -33.06860000     -67.25290000
C      -44.33340000     -34.25430000     -66.79320000
H      -44.76780000     -36.37040000     -67.24150000
H      -42.82000000     -34.26920000     -70.33310000
H      -43.78820000     -32.14580000     -66.71200000
H      -44.81500000     -34.29480000     -65.80540000
C      -42.52920000     -31.71230000     -68.90670000
H      -41.51990000     -31.94430000     -69.13020000
H      -42.43580000     -31.08300000     -67.93710000
C      -44.04940000     -36.49520000     -69.81990000
H      -43.10230000     -36.82980000     -70.37020000
H      -44.49920000     -37.29430000     -69.30140000
S      -43.13080000     -30.99490000     -70.42820000
S      -45.12340000     -36.09390000     -71.37740000
C      -44.90290000     -30.72050000     -69.99690000
H      -44.81530000     -30.72640000     -68.91210000
H      -45.26290000     -29.64730000     -70.22230000
C      -46.91180000     -36.17940000     -70.97270000
H      -47.01190000     -36.61200000     -69.98320000
H      -47.46330000     -36.94980000     -71.62560000
C      -47.50360000     -34.74800000     -71.16490000
H      -48.51090000     -34.75810000     -70.85920000
H      -47.03120000     -34.06350000     -70.47790000
C      -45.93210000     -31.77040000     -70.58060000
H      -46.92210000     -31.78920000     -70.10190000
H      -45.57630000     -32.79170000     -70.28080000
C      -46.18900000     -31.78680000     -72.02910000
C      -45.75910000     -30.81160000     -72.88670000
C      -46.74200000     -32.87360000     -72.84630000
H      -45.30780000     -29.94740000     -72.53190000
C      -46.81710000     -32.54330000     -74.23930000
C      -47.24110000     -34.20940000     -72.62980000
C      -47.42780000     -34.98050000     -73.74210000
S      -46.17180000     -30.96900000     -74.60520000
S      -47.04860000     -34.06720000     -75.26870000
H      -47.92370000     -35.99420000     -73.87320000
