40
Properties=species:S:1:pos:R:3 #=T CELL(abcABC):=T 1.889726e+02=T 90.00000=T Traj:=T positionsangstrom=T Step:=T 0=T Bead:=T pbc="F F F"
C      -45.78640000     -30.90270000     -74.82010000
C      -46.67080000     -31.44380000     -73.88040000
C      -46.90920000     -32.80610000     -73.73080000
C      -46.25820000     -33.72030000     -74.55430000
C      -45.46440000     -33.18550000     -75.60130000
C      -45.26940000     -31.81860000     -75.72260000
H      -45.57390000     -29.86180000     -74.79030000
H      -47.56990000     -33.13700000     -72.93930000
H      -44.97040000     -33.78760000     -76.33670000
H      -44.71060000     -31.40000000     -76.51370000
C      -46.42420000     -35.19580000     -74.44020000
H      -46.07390000     -35.65570000     -75.35910000
H      -47.42170000     -35.43140000     -74.21960000
C      -47.48020000     -30.35980000     -73.11900000
H      -47.61550000     -29.56030000     -73.85100000
H      -48.46520000     -30.63760000     -72.71240000
S      -45.55980000     -35.84900000     -72.97070000
S      -46.49190000     -29.64340000     -71.64870000
C      -43.91130000     -34.89880000     -72.97250000
H      -43.09310000     -35.59420000     -72.98690000
H      -43.91300000     -34.37940000     -73.89510000
C      -46.32370000     -31.08300000     -70.40560000
H      -46.69630000     -32.01790000     -71.00460000
H      -47.15660000     -30.99960000     -69.67820000
C      -45.06130000     -31.39840000     -69.67900000
H      -44.17280000     -31.40760000     -70.42530000
H      -44.86630000     -30.62100000     -68.95750000
C      -43.72080000     -33.91270000     -71.86330000
H      -44.40910000     -33.07400000     -71.94950000
H      -42.66230000     -33.51160000     -71.99190000
C      -43.88050000     -34.58980000     -70.51990000
C      -43.50710000     -35.96210000     -70.25830000
C      -44.55730000     -33.94820000     -69.33540000
H      -42.85980000     -36.44830000     -70.95030000
C      -44.53010000     -34.82960000     -68.21720000
C      -45.06930000     -32.66960000     -68.90590000
C      -45.39600000     -32.60810000     -67.57870000
S      -43.71810000     -36.33140000     -68.49520000
S      -45.12730000     -34.14450000     -66.80390000
H      -45.60620000     -31.65020000     -67.06110000
