40
Properties=species:S:1:pos:R:3 #=T CELL(abcABC):=T 1.889726e+02=T 90.00000=T Traj:=T positionsangstrom=T Step:=T 0=T Bead:=T pbc="F F F"
C      -45.99360000     -31.05430000     -74.80800000
C      -46.94580000     -31.66040000     -73.96520000
C      -46.98740000     -33.05880000     -73.95350000
C      -46.05520000     -33.83980000     -74.69560000
C      -45.09910000     -33.18250000     -75.47740000
C      -45.08870000     -31.79540000     -75.51900000
H      -46.09520000     -29.96900000     -74.96430000
H      -47.55960000     -33.60260000     -73.27640000
H      -44.35260000     -33.70040000     -75.98990000
H      -44.35270000     -31.34200000     -76.04990000
C      -46.07220000     -35.32570000     -74.59280000
H      -45.32110000     -35.83840000     -75.18360000
H      -47.02950000     -35.71500000     -74.70660000
C      -47.66030000     -30.66740000     -73.06160000
H      -48.07740000     -29.81130000     -73.52760000
H      -48.47400000     -31.08130000     -72.52270000
S      -45.49750000     -35.88690000     -72.86260000
S      -46.38590000     -30.00730000     -71.89760000
C      -43.76580000     -35.12990000     -72.82430000
H      -43.14630000     -36.02500000     -72.51950000
H      -43.42580000     -34.71180000     -73.79310000
C      -46.11700000     -31.49750000     -70.99930000
H      -45.99370000     -32.35530000     -71.72200000
H      -47.02510000     -31.68320000     -70.42280000
C      -44.87850000     -31.33290000     -70.12500000
H      -43.93200000     -31.52150000     -70.67870000
H      -44.81020000     -30.38540000     -69.62210000
C      -43.65220000     -34.08780000     -71.75650000
H      -44.26450000     -33.21520000     -71.94820000
H      -42.67440000     -33.68910000     -71.80880000
C      -43.91630000     -34.56500000     -70.30640000
C      -43.77390000     -35.87410000     -69.86860000
C      -44.44870000     -33.77270000     -69.26050000
H      -43.45640000     -36.72390000     -70.45910000
C      -44.51080000     -34.47680000     -68.00680000
C      -44.86960000     -32.40490000     -69.01390000
C      -45.39820000     -32.12730000     -67.77440000
S      -44.15630000     -36.19850000     -68.20360000
S      -45.29040000     -33.57330000     -66.77500000
H      -45.83150000     -31.22520000     -67.32960000
