40
Properties=species:S:1:pos:R:3 #=T CELL(abcABC):=T 1.889726e+02=T 90.00000=T Traj:=T positionsangstrom=T Step:=T 0=T Bead:=T pbc="F F F"
C      -45.89550000     -31.01480000     -75.08010000
C      -46.59380000     -31.40670000     -73.93210000
C      -46.78610000     -32.80830000     -73.73650000
C      -46.07560000     -33.75350000     -74.41950000
C      -45.26480000     -33.33220000     -75.48900000
C      -45.27060000     -31.95850000     -75.86450000
H      -45.80760000     -29.93350000     -75.39700000
H      -47.46440000     -33.08630000     -72.94230000
H      -44.90930000     -34.13350000     -76.21150000
H      -44.58880000     -31.68940000     -76.72390000
C      -46.41370000     -35.19470000     -74.15650000
H      -46.26850000     -35.85270000     -75.03710000
H      -47.46970000     -35.43560000     -73.73390000
C      -47.35030000     -30.42910000     -73.08190000
H      -47.78570000     -29.63850000     -73.71650000
H      -48.22090000     -30.94590000     -72.62660000
S      -45.46600000     -35.81350000     -72.73170000
S      -46.46770000     -29.78020000     -71.63920000
C      -43.84920000     -34.95190000     -72.88160000
H      -43.07050000     -35.68790000     -72.73930000
H      -43.75880000     -34.57220000     -73.97380000
C      -46.55160000     -31.21950000     -70.42270000
H      -46.86530000     -32.10470000     -70.89320000
H      -47.28420000     -30.99540000     -69.67800000
C      -45.17090000     -31.51100000     -69.92540000
H      -44.64550000     -31.74650000     -70.83260000
H      -44.80520000     -30.58910000     -69.43570000
C      -43.70100000     -33.82790000     -71.88450000
H      -44.56180000     -33.13810000     -72.06110000
H      -42.80620000     -33.22400000     -72.04230000
C      -43.85030000     -34.40400000     -70.46930000
C      -43.63510000     -35.79990000     -70.30500000
C      -44.56810000     -33.86380000     -69.29910000
H      -43.30730000     -36.60450000     -71.01380000
C      -44.56490000     -34.76010000     -68.28630000
C      -45.00660000     -32.60660000     -68.90570000
C      -45.18290000     -32.44190000     -67.58700000
S      -44.08300000     -36.35470000     -68.69620000
S      -45.02480000     -33.98310000     -66.78900000
H      -45.44890000     -31.54510000     -67.09090000
