40
Properties=species:S:1:pos:R:3 #=T CELL(abcABC):=T 1.889726e+02=T 90.00000=T Traj:=T positionsangstrom=T Step:=T 0=T Bead:=T pbc="F F F"
C      -44.00280000     -34.71190000     -74.49860000
C      -43.64540000     -33.31830000     -74.42160000
C      -42.69960000     -32.96470000     -73.49940000
C      -42.15180000     -33.86220000     -72.60940000
C      -42.31950000     -35.20910000     -72.75910000
C      -43.22100000     -35.57330000     -73.74900000
H      -44.80030000     -34.97130000     -75.23940000
H      -42.26030000     -31.94580000     -73.31520000
H      -41.87940000     -35.86310000     -72.10150000
H      -43.33620000     -36.63080000     -73.94090000
C      -41.18840000     -33.41710000     -71.51120000
H      -40.31440000     -32.84690000     -71.85170000
H      -40.74240000     -34.36850000     -71.10260000
C      -44.27680000     -32.21800000     -75.26440000
H      -43.49460000     -31.52720000     -75.48440000
H      -44.72170000     -32.64120000     -76.08990000
S      -42.02770000     -32.48900000     -70.13370000
S      -45.59500000     -31.24530000     -74.32300000
C      -43.70170000     -33.35260000     -70.01990000
H      -44.19040000     -33.28940000     -70.95260000
H      -43.46060000     -34.41220000     -69.84470000
C      -46.60350000     -32.54000000     -73.54500000
H      -46.22130000     -33.54050000     -73.92250000
H      -47.62010000     -32.47030000     -73.96210000
C      -46.52950000     -32.33100000     -72.05540000
H      -45.47240000     -32.40560000     -71.86980000
H      -46.89060000     -31.23920000     -71.98020000
C      -44.54770000     -32.57210000     -69.08220000
H      -44.69080000     -31.63950000     -69.69460000
H      -44.08980000     -32.27610000     -68.09940000
C      -45.87530000     -33.25370000     -68.85530000
C      -46.14230000     -33.59790000     -67.54630000
C      -46.93540000     -33.64950000     -69.74880000
H      -45.39820000     -33.63620000     -66.76640000
C      -48.03210000     -34.17660000     -69.07460000
C      -47.32360000     -33.23080000     -71.12150000
C      -48.53280000     -33.73930000     -71.47680000
S      -47.66630000     -34.38770000     -67.31460000
S      -49.39120000     -34.38880000     -70.15450000
H      -49.07900000     -33.55130000     -72.33670000
