40
Properties=species:S:1:pos:R:3 #=T CELL(abcABC):=T 1.889726e+02=T 90.00000=T Traj:=T positionsangstrom=T Step:=T 0=T Bead:=T pbc="F F F"
C      -43.84840000     -35.76500000     -73.67020000
C      -43.56940000     -34.43620000     -74.12370000
C      -42.57130000     -33.68910000     -73.41340000
C      -41.83670000     -34.26270000     -72.38780000
C      -42.07060000     -35.62080000     -72.05210000
C      -43.04390000     -36.40720000     -72.67490000
H      -44.74150000     -36.33620000     -74.09270000
H      -42.29200000     -32.65770000     -73.75850000
H      -41.42300000     -36.11030000     -71.35050000
H      -43.22200000     -37.46380000     -72.40200000
C      -40.96250000     -33.33630000     -71.57830000
H      -40.28280000     -32.67710000     -72.07860000
H      -40.37530000     -33.80050000     -70.78470000
C      -44.40290000     -33.81610000     -75.18480000
H      -43.71150000     -33.39760000     -75.89830000
H      -44.94660000     -34.60240000     -75.76800000
S      -42.12260000     -32.12510000     -70.69520000
S      -45.50030000     -32.38360000     -74.75600000
C      -43.70700000     -33.03690000     -70.15820000
H      -43.97460000     -33.53470000     -71.06710000
H      -43.41400000     -33.85990000     -69.52090000
C      -45.82100000     -32.73220000     -72.96280000
H      -44.89260000     -32.55270000     -72.40010000
H      -46.28740000     -33.76710000     -72.89120000
C      -46.91990000     -31.80290000     -72.22380000
H      -46.30080000     -31.04010000     -71.73710000
H      -47.61100000     -31.39590000     -73.01290000
C      -44.67090000     -31.99120000     -69.63340000
H      -44.91120000     -31.26020000     -70.44690000
H      -44.12910000     -31.44030000     -68.85570000
C      -45.94900000     -32.54740000     -69.05200000
C      -46.05700000     -33.00040000     -67.75930000
C      -47.16860000     -32.83190000     -69.81720000
H      -45.28180000     -32.95680000     -66.96320000
C      -48.10670000     -33.52500000     -69.13560000
C      -47.72930000     -32.48670000     -71.15360000
C      -49.03040000     -32.89110000     -71.32150000
S      -47.54760000     -33.83220000     -67.48310000
S      -49.65040000     -33.91980000     -70.04300000
H      -49.53060000     -32.86510000     -72.29670000
