40
Properties=species:S:1:pos:R:3 #=T CELL(abcABC):=T 1.889726e+02=T 90.00000=T Traj:=T positionsangstrom=T Step:=T 0=T Bead:=T pbc="F F F"
C      -43.84820000     -35.97290000     -73.60060000
C      -43.69120000     -34.68250000     -74.13470000
C      -42.72610000     -33.82830000     -73.51670000
C      -42.11580000     -34.19360000     -72.31300000
C      -42.37740000     -35.44210000     -71.75300000
C      -43.23210000     -36.31630000     -72.41970000
H      -44.60800000     -36.69390000     -74.05770000
H      -42.49190000     -32.80440000     -73.82020000
H      -41.84250000     -35.74440000     -70.90580000
H      -43.42210000     -37.27250000     -71.79350000
C      -41.19310000     -33.22780000     -71.64850000
H      -40.79140000     -32.62420000     -72.48850000
H      -40.29620000     -33.80550000     -71.20090000
C      -44.42330000     -34.13780000     -75.34890000
H      -43.69390000     -33.82660000     -76.13500000
H      -45.16210000     -34.80700000     -75.79160000
S      -41.89950000     -31.91740000     -70.56150000
S      -45.35810000     -32.63720000     -74.85100000
C      -43.36380000     -32.81680000     -69.75040000
H      -43.63840000     -33.71900000     -70.22620000
H      -43.20950000     -33.13570000     -68.72850000
C      -46.60510000     -33.24800000     -73.63750000
H      -46.20120000     -34.12200000     -73.20130000
H      -47.56260000     -33.48310000     -74.10360000
C      -46.69820000     -32.22520000     -72.43630000
H      -45.59340000     -32.08100000     -72.12360000
H      -47.01500000     -31.30150000     -72.94800000
C      -44.62170000     -31.91430000     -69.60740000
H      -44.91710000     -31.50820000     -70.59650000
H      -44.40050000     -30.96610000     -69.13900000
C      -45.85650000     -32.64570000     -69.16310000
C      -45.93090000     -33.14150000     -67.88190000
C      -47.07030000     -32.77980000     -69.92560000
H      -45.06250000     -33.29190000     -67.19860000
C      -48.08490000     -33.36530000     -69.07120000
C      -47.55130000     -32.65870000     -71.26120000
C      -48.95660000     -32.82320000     -71.36550000
S      -47.49770000     -33.76490000     -67.43330000
S      -49.66930000     -33.41390000     -69.88820000
H      -49.52790000     -32.52080000     -72.25450000
