40
Properties=species:S:1:pos:R:3 #=T CELL(abcABC):=T 1.889726e+02=T 90.00000=T Traj:=T positionsangstrom=T Step:=T 0=T Bead:=T pbc="F F F"
C      -43.81610000     -35.73640000     -73.96740000
C      -43.63960000     -34.29060000     -74.08730000
C      -42.60640000     -33.65580000     -73.39510000
C      -41.95920000     -34.33960000     -72.33190000
C      -42.13510000     -35.66470000     -72.20630000
C      -43.00400000     -36.34230000     -73.02350000
H      -44.60400000     -36.25890000     -74.56290000
H      -42.56490000     -32.58220000     -73.41620000
H      -41.81570000     -36.20450000     -71.39840000
H      -43.14860000     -37.44410000     -72.88080000
C      -41.24350000     -33.46880000     -71.26450000
H      -40.33320000     -33.02850000     -71.60450000
H      -41.03460000     -34.13010000     -70.40670000
C      -44.35150000     -33.59130000     -75.23450000
H      -43.65070000     -33.10500000     -75.98620000
H      -44.90580000     -34.37670000     -75.69210000
S      -42.25430000     -32.00710000     -70.80140000
S      -45.55900000     -32.22670000     -74.68030000
C      -43.61180000     -32.92050000     -69.95590000
H      -44.05260000     -33.75310000     -70.57030000
H      -43.23830000     -33.37810000     -69.00900000
C      -45.69460000     -32.49680000     -72.84190000
H      -44.81570000     -32.06180000     -72.41810000
H      -45.58790000     -33.57970000     -72.56180000
C      -47.01270000     -31.92660000     -72.36600000
H      -46.98680000     -30.91060000     -71.98670000
H      -47.66470000     -31.86410000     -73.18450000
C      -44.69890000     -31.96630000     -69.63690000
H      -44.92520000     -31.28260000     -70.55450000
H      -44.33540000     -31.22300000     -68.94830000
C      -45.88210000     -32.69460000     -69.03620000
C      -45.93690000     -33.29030000     -67.80270000
C      -47.05990000     -32.91120000     -69.82170000
H      -45.17000000     -33.30920000     -66.98740000
C      -48.03900000     -33.61320000     -69.08770000
C      -47.61150000     -32.68270000     -71.16470000
C      -48.89330000     -33.15560000     -71.38300000
S      -47.52280000     -33.96840000     -67.51710000
S      -49.55080000     -33.85550000     -69.89470000
H      -49.60360000     -32.90690000     -72.19010000
