40
Properties=species:S:1:pos:R:3 #=T CELL(abcABC):=T 1.889726e+02=T 90.00000=T Traj:=T positionsangstrom=T Step:=T 0=T Bead:=T pbc="F F F"
C      -42.76730000     -34.39880000     -68.39640000
C      -44.15710000     -34.18150000     -68.09000000
C      -44.71620000     -32.88610000     -68.25360000
C      -43.79090000     -31.77400000     -68.54870000
C      -42.43760000     -32.05980000     -68.70810000
C      -41.98910000     -33.37230000     -68.79000000
H      -42.41020000     -35.44250000     -68.38020000
H      -45.77280000     -32.73540000     -68.20630000
H      -41.78560000     -31.19360000     -69.01150000
H      -40.98890000     -33.49900000     -69.05860000
C      -44.28060000     -30.38170000     -68.73120000
H      -43.46910000     -29.70270000     -69.07730000
H      -44.63790000     -30.00290000     -67.82230000
C      -45.01370000     -35.48420000     -67.83120000
H      -44.58310000     -36.31390000     -68.31180000
H      -45.15720000     -35.64350000     -66.72290000
S      -45.73230000     -30.22780000     -69.83970000
S      -46.79500000     -35.46740000     -68.44330000
C      -45.03970000     -31.13840000     -71.32620000
H      -44.27210000     -30.44390000     -71.74780000
H      -44.39790000     -31.94330000     -70.97060000
C      -46.86690000     -35.52600000     -70.29090000
H      -47.89200000     -35.35030000     -70.67190000
H      -46.65510000     -36.57710000     -70.60820000
C      -45.95530000     -34.56520000     -70.97840000
H      -46.31180000     -33.54180000     -70.80950000
H      -44.85870000     -34.59470000     -70.67550000
C      -46.27850000     -31.39710000     -72.25470000
H      -46.57250000     -30.39860000     -72.51160000
H      -47.12310000     -31.75610000     -71.63710000
C      -46.00860000     -32.15600000     -73.48970000
C      -46.06730000     -31.56940000     -74.74240000
C      -45.96480000     -33.63460000     -73.53630000
H      -46.23200000     -30.52410000     -75.18680000
C      -45.68750000     -34.07830000     -74.83510000
C      -45.93610000     -34.65340000     -72.54320000
C      -45.72080000     -35.86840000     -73.10820000
S      -45.88170000     -32.80590000     -75.99200000
S      -45.60080000     -35.81930000     -74.87700000
H      -45.56100000     -36.74800000     -72.48910000
