40
Properties=species:S:1:pos:R:3 #=T CELL(abcABC):=T 1.889726e+02=T 90.00000=T Traj:=T positionsangstrom=T Step:=T 0=T Bead:=T pbc="F F F"
C      -47.67230000     -35.73240000     -71.47090000
C      -47.05780000     -35.92510000     -72.70450000
C      -46.98410000     -34.89930000     -73.68250000
C      -47.73310000     -33.72140000     -73.53090000
C      -48.59430000     -33.64950000     -72.37810000
C      -48.58770000     -34.63820000     -71.39510000
H      -48.03490000     -36.55220000     -70.82120000
H      -46.49300000     -35.08110000     -74.63860000
H      -49.20120000     -32.73250000     -72.22230000
H      -49.26440000     -34.69240000     -70.59550000
C      -47.58430000     -32.51710000     -74.36550000
H      -48.25010000     -31.66840000     -74.20280000
H      -47.79550000     -32.71640000     -75.40340000
C      -46.28770000     -37.21410000     -73.05130000
H      -46.51460000     -38.09590000     -72.46830000
H      -46.35130000     -37.45750000     -74.07250000
S      -45.77850000     -31.93300000     -74.33880000
S      -44.46010000     -36.67600000     -72.82760000
C      -45.52400000     -31.49950000     -72.56220000
H      -46.16640000     -30.62290000     -72.31370000
H      -45.87540000     -32.33270000     -71.88980000
C      -44.41150000     -35.86350000     -71.23850000
H      -43.62380000     -36.35000000     -70.61450000
H      -45.29420000     -36.14180000     -70.63230000
C      -44.21550000     -34.40220000     -71.42410000
H      -43.30010000     -34.02140000     -72.01600000
H      -45.02450000     -33.91800000     -71.96620000
C      -43.92900000     -31.33390000     -72.24190000
H      -43.52970000     -30.45500000     -72.79070000
H      -43.39380000     -32.24620000     -72.50930000
C      -43.92260000     -31.13700000     -70.74010000
C      -43.84420000     -29.93390000     -70.15650000
C      -44.14480000     -32.22130000     -69.85210000
H      -43.61610000     -28.97460000     -70.72740000
C      -44.08180000     -31.80450000     -68.51410000
C      -44.21800000     -33.67580000     -70.02730000
C      -44.13040000     -34.30940000     -68.82850000
S      -43.92360000     -30.10420000     -68.32960000
S      -43.96810000     -33.19290000     -67.43020000
H      -44.25490000     -35.37240000     -68.71580000
