40
Properties=species:S:1:pos:R:3 #=T CELL(abcABC):=T 1.889726e+02=T 90.00000=T Traj:=T positionsangstrom=T Step:=T 0=T Bead:=T pbc="F F F"
C      -41.83230000     -34.34680000     -69.95090000
C      -42.82390000     -34.72740000     -69.05780000
C      -43.61200000     -35.84130000     -69.27310000
C      -43.44420000     -36.61240000     -70.43840000
C      -42.42600000     -36.24350000     -71.31490000
C      -41.63560000     -35.10960000     -71.08970000
H      -41.15800000     -33.57300000     -69.65130000
H      -44.49970000     -36.02760000     -68.65330000
H      -42.28630000     -36.86280000     -72.23240000
H      -40.92890000     -34.89250000     -71.82570000
C      -44.49830000     -37.70460000     -70.64010000
H      -44.67450000     -38.25760000     -69.73060000
H      -44.15530000     -38.52560000     -71.27620000
C      -43.04450000     -33.93450000     -67.77480000
H      -43.50810000     -34.45300000     -66.97270000
H      -42.07870000     -33.49610000     -67.43150000
S      -46.11620000     -37.12430000     -71.36550000
S      -44.20270000     -32.54530000     -68.03230000
C      -45.83210000     -35.45010000     -72.30870000
H      -44.74380000     -35.22180000     -72.18110000
H      -45.97560000     -35.70400000     -73.37140000
C      -44.57820000     -32.13490000     -69.80280000
H      -44.36220000     -32.89750000     -70.53840000
H      -43.93640000     -31.37430000     -70.09800000
C      -45.96540000     -31.52700000     -69.87500000
H      -46.59410000     -32.31740000     -69.59340000
H      -45.99440000     -30.75630000     -69.17590000
C      -46.85460000     -34.34330000     -71.90140000
H      -46.70080000     -34.11450000     -70.88400000
H      -47.91490000     -34.74360000     -71.89260000
C      -46.98310000     -33.15980000     -72.78960000
C      -47.50270000     -33.20940000     -74.06110000
C      -46.70190000     -31.76520000     -72.40720000
H      -47.81750000     -34.14270000     -74.46440000
C      -46.97540000     -30.87860000     -73.48200000
C      -46.25610000     -31.00060000     -71.22210000
C      -46.16290000     -29.65510000     -71.43150000
S      -47.67010000     -31.62420000     -74.87450000
S      -46.76500000     -29.21200000     -73.03280000
H      -46.13700000     -28.89310000     -70.64510000
