40
Properties=species:S:1:pos:R:3 #=T CELL(abcABC):=T 1.889726e+02=T 90.00000=T Traj:=T positionsangstrom=T Step:=T 0=T Bead:=T pbc="F F F"
C      -47.74970000     -35.78830000     -71.69570000
C      -46.86570000     -35.86510000     -72.81930000
C      -46.69020000     -34.76050000     -73.72930000
C      -47.40790000     -33.57050000     -73.46060000
C      -48.28530000     -33.48010000     -72.39390000
C      -48.39250000     -34.53840000     -71.49420000
H      -47.97540000     -36.66040000     -71.03620000
H      -46.01750000     -34.87690000     -74.51690000
H      -48.89940000     -32.60160000     -72.21020000
H      -49.11870000     -34.54790000     -70.70600000
C      -47.30680000     -32.44180000     -74.38260000
H      -48.03050000     -31.64560000     -74.12690000
H      -47.37780000     -32.77150000     -75.40310000
C      -46.07250000     -37.12500000     -72.98540000
H      -46.52680000     -37.98790000     -72.41690000
H      -46.10800000     -37.47440000     -74.02480000
S      -45.58420000     -31.73930000     -74.38930000
S      -44.25470000     -37.00830000     -72.63390000
C      -45.44740000     -31.36360000     -72.64520000
H      -46.08080000     -30.49120000     -72.43410000
H      -45.95650000     -32.17520000     -72.04150000
C      -43.96690000     -36.08370000     -71.07610000
H      -42.99720000     -36.37280000     -70.76690000
H      -44.61810000     -36.45750000     -70.34800000
C      -43.93660000     -34.51640000     -71.30290000
H      -42.99850000     -34.26980000     -71.93620000
H      -44.74190000     -34.30330000     -71.92240000
C      -43.90010000     -31.10770000     -72.21560000
H      -43.60970000     -30.14200000     -72.58100000
H      -43.28870000     -31.85100000     -72.64490000
C      -43.89250000     -31.11610000     -70.74180000
C      -44.01060000     -29.98460000     -69.97100000
C      -44.11830000     -32.28320000     -69.87690000
H      -43.87300000     -29.04710000     -70.47710000
C      -44.35460000     -31.87420000     -68.56400000
C      -44.20910000     -33.75230000     -70.06960000
C      -44.48920000     -34.31760000     -68.84730000
S      -44.22790000     -30.13010000     -68.31740000
S      -44.85060000     -33.23070000     -67.55690000
H      -44.50240000     -35.38740000     -68.63900000
