40
Properties=species:S:1:pos:R:3 #=T CELL(abcABC):=T 1.889726e+02=T 90.00000=T Traj:=T positionsangstrom=T Step:=T 0=T Bead:=T pbc="F F F"
C      -43.64850000     -36.04020000     -73.21230000
C      -43.77960000     -34.85670000     -73.95980000
C      -42.99500000     -33.73280000     -73.58820000
C      -42.14930000     -33.72220000     -72.44380000
C      -42.11910000     -34.90260000     -71.65650000
C      -42.85410000     -36.06230000     -72.03040000
H      -44.38350000     -36.84850000     -73.29970000
H      -42.99890000     -32.79510000     -74.26320000
H      -41.30820000     -34.92480000     -70.90230000
H      -42.76870000     -36.93570000     -71.42320000
C      -41.38510000     -32.44480000     -72.08650000
H      -40.89180000     -32.05710000     -73.02570000
H      -40.56530000     -32.67190000     -71.40220000
C      -44.74210000     -34.91180000     -75.12490000
H      -44.28440000     -34.80910000     -76.14700000
H      -45.43360000     -35.75810000     -74.97790000
S      -42.37520000     -31.04420000     -71.35050000
S      -45.82520000     -33.41900000     -75.02880000
C      -43.61530000     -31.97340000     -70.35720000
H      -43.66190000     -32.83770000     -70.92760000
H      -43.24420000     -32.24420000     -69.34870000
C      -47.02460000     -33.75640000     -73.62100000
H      -47.55320000     -34.59080000     -73.83010000
H      -47.69500000     -32.95120000     -73.65220000
C      -46.27350000     -33.69860000     -72.23460000
H      -45.56620000     -34.46490000     -72.17830000
H      -45.72460000     -32.73310000     -72.20140000
C      -44.91680000     -31.24340000     -70.16980000
H      -45.37860000     -30.99690000     -71.09120000
H      -44.76950000     -30.23940000     -69.68020000
C      -45.92070000     -32.03140000     -69.30700000
C      -46.17030000     -31.70370000     -68.01880000
C      -46.83840000     -33.05590000     -69.78260000
H      -45.59320000     -30.90520000     -67.58580000
C      -47.77790000     -33.40580000     -68.77290000
C      -47.09930000     -33.78140000     -70.99940000
C      -48.11640000     -34.75440000     -70.85670000
S      -47.63860000     -32.39720000     -67.28170000
S      -48.90190000     -34.60650000     -69.27870000
H      -48.52670000     -35.58000000     -71.53710000
