40
Properties=species:S:1:pos:R:3 #=T CELL(abcABC):=T 1.889726e+02=T 90.00000=T Traj:=T positionsangstrom=T Step:=T 0=T Bead:=T pbc="F F F"
C      -41.40750000     -34.72530000     -69.83420000
C      -42.62760000     -34.59010000     -69.15880000
C      -43.72840000     -35.42510000     -69.51220000
C      -43.47440000     -36.42570000     -70.49640000
C      -42.19500000     -36.50610000     -71.13830000
C      -41.20130000     -35.62620000     -70.84500000
H      -40.55550000     -34.13850000     -69.54550000
H      -44.68080000     -35.33840000     -69.03250000
H      -42.16920000     -37.15710000     -71.97830000
H      -40.18190000     -35.72230000     -71.24710000
C      -44.53620000     -37.48360000     -70.86500000
H      -44.64370000     -38.12960000     -70.00450000
H      -44.13770000     -38.03860000     -71.68200000
C      -42.74760000     -33.54770000     -68.02010000
H      -42.70450000     -34.19130000     -67.09180000
H      -41.91380000     -32.90100000     -67.93580000
S      -46.27250000     -36.89860000     -71.20860000
S      -44.29220000     -32.61290000     -67.94390000
C      -45.89790000     -35.27000000     -72.06120000
H      -44.95660000     -34.99330000     -71.61950000
H      -45.84810000     -35.51400000     -73.17330000
C      -44.79520000     -32.34590000     -69.76900000
H      -44.85130000     -33.29610000     -70.33650000
H      -43.98430000     -31.74520000     -70.21370000
C      -46.04920000     -31.52580000     -69.86160000
H      -46.85610000     -32.14020000     -69.48270000
H      -46.10860000     -30.70930000     -69.14530000
C      -47.07740000     -34.34660000     -71.83590000
H      -47.03200000     -33.94200000     -70.78770000
H      -47.98880000     -34.87870000     -71.98170000
C      -47.10030000     -33.17640000     -72.73800000
C      -47.57960000     -33.37360000     -74.02180000
C      -46.83060000     -31.76540000     -72.43330000
H      -47.68020000     -34.24720000     -74.57150000
C      -47.03520000     -30.92500000     -73.48100000
C      -46.33480000     -30.93720000     -71.26110000
C      -46.26460000     -29.60090000     -71.50190000
S      -47.43200000     -31.75710000     -74.96070000
S      -46.89200000     -29.25990000     -73.18970000
H      -45.82370000     -29.01490000     -70.70330000
