40
Properties=species:S:1:pos:R:3 #=T CELL(abcABC):=T 1.889726e+02=T 90.00000=T Traj:=T positionsangstrom=T Step:=T 0=T Bead:=T pbc="F F F"
C      -42.49390000     -36.34150000     -72.38470000
C      -43.27870000     -35.48510000     -73.19050000
C      -42.91910000     -34.12790000     -73.23220000
C      -41.84070000     -33.61510000     -72.49340000
C      -41.12470000     -34.50670000     -71.65160000
C      -41.46830000     -35.85340000     -71.66930000
H      -42.63840000     -37.42730000     -72.39910000
H      -43.41730000     -33.37860000     -73.84130000
H      -40.28380000     -34.12000000     -71.05400000
H      -40.80260000     -36.48360000     -71.05500000
C      -41.38530000     -32.22430000     -72.45200000
H      -40.82630000     -31.84490000     -73.29200000
H      -40.81120000     -32.12640000     -71.54920000
C      -44.34480000     -36.12880000     -74.02240000
H      -43.89890000     -36.32860000     -75.02700000
H      -44.67620000     -37.07860000     -73.57910000
S      -42.86910000     -30.91050000     -72.44060000
S      -45.75580000     -35.05020000     -74.26750000
C      -43.99490000     -31.51190000     -71.05590000
H      -44.03890000     -32.60790000     -71.09480000
H      -43.56870000     -31.33540000     -70.10880000
C      -46.18110000     -34.54940000     -72.51370000
H      -45.24870000     -34.26100000     -71.94030000
H      -46.49470000     -35.52500000     -72.06190000
C      -47.36110000     -33.64520000     -72.48640000
H      -47.08380000     -32.61530000     -72.83920000
H      -48.03860000     -34.12240000     -73.15080000
C      -45.47740000     -31.10500000     -71.16380000
H      -45.91310000     -31.37430000     -72.12120000
H      -45.53800000     -30.02900000     -71.15670000
C      -46.30070000     -31.61860000     -70.01190000
C      -46.12850000     -31.10580000     -68.76060000
C      -47.37010000     -32.58930000     -70.11470000
H      -45.30450000     -30.50570000     -68.40860000
C      -48.08640000     -32.70920000     -68.87760000
C      -47.85470000     -33.51780000     -71.05300000
C      -48.85770000     -34.33780000     -70.58820000
S      -47.28920000     -31.85980000     -67.55090000
S      -49.25990000     -33.99780000     -68.92150000
H      -49.39760000     -35.16070000     -71.09400000
