40
Properties=species:S:1:pos:R:3 #=T CELL(abcABC):=T 1.889726e+02=T 90.00000=T Traj:=T positionsangstrom=T Step:=T 0=T Bead:=T pbc="F F F"
C      -42.39980000     -36.43010000     -72.33740000
C      -43.19340000     -35.60430000     -73.08710000
C      -42.86190000     -34.26780000     -73.17080000
C      -41.81230000     -33.71960000     -72.43610000
C      -40.92080000     -34.53890000     -71.73930000
C      -41.31810000     -35.90320000     -71.63910000
H      -42.61600000     -37.48230000     -72.19160000
H      -43.56050000     -33.50880000     -73.61770000
H      -40.14680000     -33.99410000     -71.19790000
H      -40.76030000     -36.64830000     -71.00950000
C      -41.50730000     -32.28930000     -72.43450000
H      -40.80320000     -32.13970000     -73.26290000
H      -40.83970000     -32.01300000     -71.65470000
C      -44.34610000     -36.21110000     -73.97270000
H      -43.93230000     -36.39950000     -74.95970000
H      -44.67330000     -37.11380000     -73.47350000
S      -42.91960000     -31.08640000     -72.49990000
S      -45.80180000     -35.21540000     -74.26000000
C      -43.90710000     -31.35980000     -70.90750000
H      -43.48660000     -32.19880000     -70.39220000
H      -43.74900000     -30.48630000     -70.32720000
C      -46.32690000     -34.76960000     -72.52350000
H      -45.43220000     -34.37170000     -71.91750000
H      -46.70180000     -35.66340000     -72.01910000
C      -47.40420000     -33.70560000     -72.41260000
H      -47.08660000     -32.78580000     -72.85250000
H      -48.20320000     -33.98520000     -73.14940000
C      -45.41070000     -31.35490000     -71.27530000
H      -45.61750000     -31.96950000     -72.14370000
H      -45.59130000     -30.32300000     -71.62740000
C      -46.28700000     -31.66720000     -70.10790000
C      -46.05140000     -31.01990000     -68.91780000
C      -47.38500000     -32.56550000     -70.10750000
H      -45.25110000     -30.31990000     -68.77030000
C      -48.03100000     -32.57380000     -68.87080000
C      -47.95330000     -33.48500000     -71.05050000
C      -49.08650000     -34.10210000     -70.53050000
S      -47.17510000     -31.61020000     -67.67200000
S      -49.37160000     -33.69150000     -68.82840000
H      -49.69640000     -34.67230000     -71.06510000
