40
Properties=species:S:1:pos:R:3 #=T CELL(abcABC):=T 1.889726e+02=T 90.00000=T Traj:=T positionsangstrom=T Step:=T 0=T Bead:=T pbc="F F F"
C      -42.73000000     -36.19440000     -72.55490000
C      -43.20910000     -35.22110000     -73.47340000
C      -42.68190000     -33.89910000     -73.41780000
C      -41.67570000     -33.54840000     -72.52920000
C      -41.18030000     -34.52560000     -71.64410000
C      -41.68540000     -35.78570000     -71.65460000
H      -43.12660000     -37.20610000     -72.68020000
H      -43.04140000     -33.12760000     -74.08850000
H      -40.39950000     -34.34390000     -70.91420000
H      -41.29650000     -36.52380000     -70.91820000
C      -41.35630000     -32.06780000     -72.38840000
H      -40.72200000     -31.75290000     -73.18060000
H      -40.71770000     -31.78480000     -71.57220000
C      -44.24570000     -35.51990000     -74.51240000
H      -43.91870000     -35.60730000     -75.53340000
H      -44.64560000     -36.50070000     -74.22440000
S      -42.96980000     -31.01360000     -72.37900000
S      -45.61970000     -34.29300000     -74.51900000
C      -44.10900000     -32.00700000     -71.27330000
H      -44.43820000     -32.90130000     -71.68050000
H      -43.49680000     -32.32180000     -70.44960000
C      -46.40690000     -34.66930000     -72.91280000
H      -45.62180000     -34.79600000     -72.08380000
H      -47.03720000     -35.61140000     -72.94800000
C      -47.37940000     -33.51200000     -72.47420000
H      -46.81920000     -32.57270000     -72.57570000
H      -48.35950000     -33.51070000     -73.08420000
C      -45.28380000     -31.12780000     -70.72560000
H      -45.89340000     -30.84690000     -71.57020000
H      -44.84720000     -30.27410000     -70.24880000
C      -46.18490000     -31.87700000     -69.69140000
C      -46.06350000     -31.54790000     -68.38320000
C      -47.28140000     -32.84220000     -69.97090000
H      -45.19010000     -31.03510000     -67.94070000
C      -47.93160000     -33.09890000     -68.66970000
C      -47.90150000     -33.58890000     -71.02990000
C      -48.86750000     -34.42780000     -70.52330000
S      -47.36150000     -32.18100000     -67.36840000
S      -49.29740000     -34.16720000     -68.83880000
H      -49.54260000     -35.00110000     -71.20090000
