40
Properties=species:S:1:pos:R:3 #=T CELL(abcABC):=T 1.889726e+02=T 90.00000=T Traj:=T positionsangstrom=T Step:=T 0=T Bead:=T pbc="F F F"
C      -42.83030000     -36.13410000     -72.92090000
C      -43.27050000     -35.13030000     -73.82750000
C      -42.90850000     -33.81920000     -73.63570000
C      -42.04090000     -33.39410000     -72.56570000
C      -41.46790000     -34.37720000     -71.77780000
C      -41.91720000     -35.75730000     -71.98740000
H      -43.07110000     -37.19420000     -73.05440000
H      -43.31760000     -33.04520000     -74.24210000
H      -40.80850000     -34.13130000     -70.93600000
H      -41.53580000     -36.46670000     -71.34470000
C      -41.57220000     -31.97120000     -72.41460000
H      -41.26300000     -31.55590000     -73.35380000
H      -40.67240000     -31.97800000     -71.78380000
C      -44.32570000     -35.49740000     -74.85540000
H      -43.91410000     -35.25150000     -75.82160000
H      -44.57910000     -36.53550000     -74.66780000
S      -42.80180000     -30.82750000     -71.63230000
S      -45.83740000     -34.44820000     -74.73050000
C      -44.10890000     -31.92120000     -70.91480000
H      -44.47850000     -32.61350000     -71.71490000
H      -43.68890000     -32.60830000     -70.24520000
C      -46.08750000     -34.36310000     -72.86900000
H      -45.02440000     -34.23310000     -72.47650000
H      -46.57690000     -35.34190000     -72.50680000
C      -47.17280000     -33.29300000     -72.50320000
H      -46.62230000     -32.31460000     -72.64740000
H      -47.99670000     -33.38320000     -73.21130000
C      -45.33910000     -31.10120000     -70.48350000
H      -45.82710000     -30.71820000     -71.33630000
H      -45.02790000     -30.15910000     -70.04330000
C      -46.16890000     -31.79330000     -69.52150000
C      -46.14160000     -31.55490000     -68.17990000
C      -47.19480000     -32.82640000     -69.87970000
H      -45.58430000     -30.76090000     -67.70810000
C      -47.84780000     -33.29930000     -68.71350000
C      -47.68680000     -33.48440000     -71.11290000
C      -48.77470000     -34.27470000     -70.78960000
S      -47.21800000     -32.53590000     -67.20100000
S      -49.12870000     -34.47190000     -69.07030000
H      -49.35120000     -34.92740000     -71.39930000
