40
Properties=species:S:1:pos:R:3 #=T CELL(abcABC):=T 1.889726e+02=T 90.00000=T Traj:=T positionsangstrom=T Step:=T 0=T Bead:=T pbc="F F F"
C      -42.45850000     -36.44180000     -72.35830000
C      -43.26930000     -35.60950000     -73.11360000
C      -42.92240000     -34.26470000     -73.16010000
C      -41.80740000     -33.74660000     -72.43500000
C      -40.97530000     -34.61580000     -71.73200000
C      -41.32350000     -35.99130000     -71.66180000
H      -42.66400000     -37.50400000     -72.26300000
H      -43.56170000     -33.59260000     -73.75910000
H      -40.01070000     -34.18460000     -71.32580000
H      -40.70150000     -36.65250000     -70.97590000
C      -41.43730000     -32.29930000     -72.43510000
H      -40.78000000     -32.13250000     -73.30060000
H      -40.92010000     -31.92630000     -71.51070000
C      -44.35670000     -36.20440000     -73.91690000
H      -44.11260000     -36.41060000     -74.98090000
H      -44.64620000     -37.16770000     -73.45720000
S      -42.81400000     -31.11570000     -72.62950000
S      -45.80870000     -35.06610000     -74.08000000
C      -43.81340000     -31.59800000     -71.16780000
H      -43.69380000     -32.70120000     -71.02220000
H      -43.46510000     -31.10610000     -70.25710000
C      -46.38200000     -34.82180000     -72.40660000
H      -45.54820000     -34.38160000     -71.83830000
H      -46.55400000     -35.81170000     -71.99640000
C      -47.60290000     -33.92550000     -72.41640000
H      -47.42810000     -33.13620000     -73.03160000
H      -48.50120000     -34.53210000     -72.74220000
C      -45.32790000     -31.29800000     -71.36450000
H      -45.67400000     -32.01580000     -72.15630000
H      -45.47490000     -30.31300000     -71.75630000
C      -46.21700000     -31.65870000     -70.11780000
C      -46.00000000     -31.10280000     -68.88920000
C      -47.33850000     -32.56730000     -70.07180000
H      -45.28170000     -30.30140000     -68.71380000
C      -48.00030000     -32.52900000     -68.89510000
C      -47.95230000     -33.53130000     -71.02150000
C      -49.04750000     -34.12200000     -70.38930000
S      -47.26910000     -31.48200000     -67.74560000
S      -49.35150000     -33.57210000     -68.78420000
H      -49.56910000     -34.84300000     -70.83120000
