40
Properties=species:S:1:pos:R:3 #=T CELL(abcABC):=T 1.889726e+02=T 90.00000=T Traj:=T positionsangstrom=T Step:=T 0=T Bead:=T pbc="F F F"
C      -42.70760000     -36.15820000     -72.80930000
C      -43.18510000     -35.20500000     -73.71900000
C      -42.70180000     -33.85650000     -73.67730000
C      -41.86540000     -33.46210000     -72.62000000
C      -41.46250000     -34.43620000     -71.67290000
C      -41.76600000     -35.79280000     -71.82960000
H      -43.15520000     -37.16660000     -72.72910000
H      -43.18070000     -33.18020000     -74.38250000
H      -40.80660000     -34.11680000     -70.85700000
H      -41.29310000     -36.45800000     -71.12940000
C      -41.47260000     -32.00670000     -72.42850000
H      -41.14030000     -31.57380000     -73.41100000
H      -40.80060000     -31.98010000     -71.53680000
C      -44.32460000     -35.51180000     -74.68810000
H      -44.00940000     -35.41620000     -75.79280000
H      -44.65550000     -36.57880000     -74.65020000
S      -42.87950000     -30.92670000     -71.97570000
S      -45.74590000     -34.29470000     -74.48700000
C      -44.03990000     -32.02340000     -71.13060000
H      -44.49880000     -32.74820000     -71.89370000
H      -43.58170000     -32.47290000     -70.20710000
C      -46.36230000     -34.63280000     -72.80400000
H      -45.52230000     -34.67520000     -72.19010000
H      -46.78470000     -35.60710000     -72.76470000
C      -47.24350000     -33.41100000     -72.45190000
H      -46.79400000     -32.47370000     -72.67620000
H      -48.03420000     -33.37490000     -73.19070000
C      -45.26160000     -31.15160000     -70.62720000
H      -45.83910000     -30.86800000     -71.54650000
H      -44.97900000     -30.26340000     -70.03930000
C      -46.21010000     -31.85120000     -69.57020000
C      -46.12660000     -31.46920000     -68.27880000
C      -47.23850000     -32.86070000     -69.84980000
H      -45.44380000     -30.76240000     -67.79850000
C      -47.84080000     -33.21010000     -68.70680000
C      -47.79140000     -33.50720000     -71.04610000
C      -48.81060000     -34.30480000     -70.77570000
S      -47.26630000     -32.39350000     -67.28650000
S      -49.24390000     -34.30000000     -68.99400000
H      -49.36300000     -34.98690000     -71.40700000
