40
Properties=species:S:1:pos:R:3 #=T CELL(abcABC):=T 1.889726e+02=T 90.00000=T Traj:=T positionsangstrom=T Step:=T 0=T Bead:=T pbc="F F F"
C      -40.96690000     -35.02990000     -70.31480000
C      -42.25600000     -34.90050000     -69.69550000
C      -43.32180000     -35.65440000     -70.18530000
C      -43.19490000     -36.50630000     -71.27580000
C      -41.95570000     -36.78670000     -71.85320000
C      -40.90890000     -36.05550000     -71.26300000
H      -39.99650000     -34.60340000     -70.10910000
H      -44.26300000     -35.64660000     -69.66040000
H      -41.86770000     -37.42380000     -72.82750000
H      -39.90990000     -36.32740000     -71.61810000
C      -44.43310000     -37.41600000     -71.65270000
H      -44.50780000     -38.31550000     -71.00300000
H      -44.28190000     -37.72340000     -72.69930000
C      -42.46540000     -33.96600000     -68.52630000
H      -42.08610000     -34.35740000     -67.65500000
H      -41.85150000     -33.03420000     -68.72450000
S      -45.92730000     -36.52370000     -71.30810000
S      -44.19280000     -33.43550000     -68.06100000
C      -45.95390000     -35.00030000     -72.34850000
H      -45.23310000     -34.15140000     -72.32250000
H      -45.73150000     -35.40370000     -73.33940000
C      -44.71130000     -32.46710000     -69.57120000
H      -44.42740000     -33.12920000     -70.41420000
H      -44.01170000     -31.63450000     -69.74340000
C      -46.11390000     -32.06060000     -69.49280000
H      -46.70290000     -33.03900000     -69.43630000
H      -46.36280000     -31.46640000     -68.58130000
C      -47.41860000     -34.36930000     -72.31850000
H      -47.78280000     -34.46800000     -71.24730000
H      -48.06340000     -35.07260000     -72.91890000
C      -47.53310000     -32.89180000     -72.78340000
C      -47.86280000     -32.68170000     -74.09370000
C      -47.19650000     -31.65520000     -71.99970000
H      -48.30240000     -33.39490000     -74.80010000
C      -47.36730000     -30.53350000     -72.85400000
C      -46.55730000     -31.23190000     -70.72760000
C      -46.31200000     -29.86870000     -70.76310000
S      -47.95140000     -30.92390000     -74.50280000
S      -46.97400000     -29.01590000     -72.14660000
H      -45.95530000     -29.31090000     -69.92060000
