40
Properties=species:S:1:pos:R:3 #=T CELL(abcABC):=T 1.889726e+02=T 90.00000=T Traj:=T positionsangstrom=T Step:=T 0=T Bead:=T pbc="F F F"
C      -42.95700000     -36.34450000     -71.79980000
C      -43.31440000     -35.80530000     -73.05390000
C      -42.83990000     -34.56550000     -73.48680000
C      -42.03150000     -33.81610000     -72.59090000
C      -41.78690000     -34.27100000     -71.32930000
C      -42.17200000     -35.60070000     -70.92730000
H      -43.26180000     -37.34490000     -71.42680000
H      -43.23590000     -34.21620000     -74.47820000
H      -41.26880000     -33.64320000     -70.62800000
H      -42.04840000     -35.98110000     -69.93040000
C      -41.57260000     -32.49420000     -73.00910000
H      -41.09710000     -32.50100000     -73.98360000
H      -40.81120000     -32.13370000     -72.27820000
C      -44.41660000     -36.57350000     -73.80070000
H      -44.05750000     -36.71020000     -74.87940000
H      -44.58740000     -37.49430000     -73.25480000
S      -42.97770000     -31.14600000     -73.09670000
S      -46.01970000     -35.65300000     -73.95010000
C      -43.88120000     -31.55360000     -71.45060000
H      -43.89440000     -32.60310000     -71.25850000
H      -43.33170000     -31.02780000     -70.66850000
C      -46.07340000     -34.68230000     -72.35020000
H      -45.15330000     -34.16620000     -72.16290000
H      -46.10990000     -35.37410000     -71.49700000
C      -47.30430000     -33.84710000     -72.25620000
H      -47.19720000     -32.90200000     -72.89980000
H      -48.11610000     -34.40820000     -72.82050000
C      -45.31350000     -31.01860000     -71.52030000
H      -45.67600000     -31.51860000     -72.42010000
H      -45.30870000     -29.92760000     -71.76340000
C      -46.08840000     -31.42650000     -70.28480000
C      -45.82280000     -30.77500000     -69.12390000
C      -47.16170000     -32.45020000     -70.09460000
H      -45.15250000     -30.01990000     -68.96350000
C      -47.73410000     -32.39770000     -68.86220000
C      -47.75970000     -33.51210000     -70.90700000
C      -48.65510000     -34.27840000     -70.21820000
S      -47.01930000     -31.23230000     -67.82510000
S      -48.95050000     -33.60390000     -68.54860000
H      -49.28430000     -34.94890000     -70.64750000
