40
Properties=species:S:1:pos:R:3 #=T CELL(abcABC):=T 1.889726e+02=T 90.00000=T Traj:=T positionsangstrom=T Step:=T 0=T Bead:=T pbc="F F F"
C      -45.94720000     -34.34920000     -75.44540000
C      -46.70250000     -34.65490000     -74.30690000
C      -46.17980000     -35.48390000     -73.29600000
C      -44.95570000     -36.13160000     -73.31900000
C      -44.19000000     -35.79580000     -74.52240000
C      -44.67950000     -34.94960000     -75.52960000
H      -46.37260000     -33.63990000     -76.16200000
H      -46.69300000     -35.59740000     -72.38180000
H      -43.16130000     -36.23010000     -74.78570000
H      -43.96910000     -34.64200000     -76.34080000
C      -44.44680000     -36.95050000     -72.20530000
H      -43.61770000     -37.60420000     -72.58290000
H      -45.29440000     -37.58360000     -71.93410000
C      -48.10240000     -34.09920000     -74.14560000
H      -48.61010000     -34.05030000     -75.15470000
H      -48.65530000     -34.72960000     -73.50280000
S      -43.94950000     -35.78980000     -70.76500000
S      -48.25640000     -32.26960000     -73.78240000
C      -42.75300000     -34.55020000     -71.56530000
H      -41.93980000     -34.62180000     -70.80910000
H      -42.43570000     -34.83820000     -72.56020000
C      -47.94920000     -31.98840000     -72.03000000
H      -48.60820000     -32.61590000     -71.45920000
H      -48.30460000     -30.92560000     -71.89840000
C      -46.45390000     -32.11140000     -71.66870000
H      -46.03590000     -33.08900000     -72.00820000
H      -45.88090000     -31.36670000     -72.28000000
C      -43.20540000     -33.11170000     -71.42350000
H      -44.01180000     -32.80620000     -72.05450000
H      -42.40510000     -32.49380000     -71.77140000
C      -43.52780000     -32.74460000     -69.96430000
C      -42.58300000     -32.80630000     -68.96760000
C      -44.80300000     -32.06210000     -69.62560000
H      -41.68610000     -33.38390000     -68.85110000
C      -44.71950000     -31.63920000     -68.29150000
C      -46.06910000     -31.79810000     -70.27990000
C      -46.87790000     -31.19920000     -69.40570000
S      -43.29250000     -32.10570000     -67.45300000
S      -46.24550000     -30.95540000     -67.75790000
H      -47.93590000     -30.99510000     -69.56080000
