40
Properties=species:S:1:pos:R:3 #=T CELL(abcABC):=T 1.889726e+02=T 90.00000=T Traj:=T positionsangstrom=T Step:=T 0=T Bead:=T pbc="F F F"
C      -45.49130000     -33.82230000     -75.21720000
C      -46.54510000     -34.44200000     -74.45260000
C      -46.19730000     -35.45270000     -73.56520000
C      -44.87700000     -35.99750000     -73.52640000
C      -43.91120000     -35.37270000     -74.27330000
C      -44.17050000     -34.25110000     -75.07370000
H      -45.73390000     -32.93970000     -75.80170000
H      -46.93370000     -35.93380000     -72.88960000
H      -42.87590000     -35.79120000     -74.17410000
H      -43.27960000     -33.80930000     -75.50940000
C      -44.39770000     -36.91610000     -72.42790000
H      -43.50720000     -37.44710000     -72.68310000
H      -45.09870000     -37.76970000     -72.23320000
C      -47.91460000     -33.81200000     -74.60840000
H      -48.31730000     -33.86910000     -75.60450000
H      -48.52470000     -34.44190000     -73.92300000
S      -44.15310000     -35.96060000     -70.80420000
S      -47.95190000     -32.07150000     -73.99770000
C      -42.80800000     -34.79530000     -71.36280000
H      -41.92500000     -35.04930000     -70.75600000
H      -42.63210000     -35.09630000     -72.39050000
C      -47.74560000     -31.92410000     -72.21320000
H      -48.66680000     -32.26830000     -71.68050000
H      -47.87870000     -30.82980000     -72.12090000
C      -46.32780000     -32.32940000     -71.72990000
H      -46.31230000     -33.37880000     -71.93620000
H      -45.52250000     -31.90550000     -72.37930000
C      -43.03840000     -33.26080000     -71.16930000
H      -43.65640000     -32.83930000     -72.00620000
H      -42.08690000     -32.80240000     -71.21530000
C      -43.61940000     -32.81810000     -69.86790000
C      -42.77250000     -32.67510000     -68.75170000
C      -44.90070000     -32.21860000     -69.59380000
H      -41.78810000     -33.15630000     -68.77080000
C      -45.01810000     -31.90070000     -68.22820000
C      -46.20120000     -32.07160000     -70.23360000
C      -47.16560000     -31.62530000     -69.40340000
S      -43.59490000     -32.17450000     -67.31160000
S      -46.51810000     -31.20580000     -67.76750000
H      -48.23600000     -31.42150000     -69.61880000
