40
Properties=species:S:1:pos:R:3 #=T CELL(abcABC):=T 1.889726e+02=T 90.00000=T Traj:=T positionsangstrom=T Step:=T 0=T Bead:=T pbc="F F F"
C      -48.76670000     -32.58710000     -73.76850000
C      -48.59750000     -32.18700000     -72.40070000
C      -47.65510000     -31.19550000     -72.09650000
C      -46.82360000     -30.64640000     -73.06420000
C      -47.00590000     -31.08340000     -74.38000000
C      -47.99840000     -32.07020000     -74.72370000
H      -49.51790000     -33.40450000     -73.91720000
H      -47.52470000     -30.88990000     -71.04040000
H      -46.37630000     -30.64420000     -75.12460000
H      -48.21040000     -32.31690000     -75.71920000
C      -45.81610000     -29.59230000     -72.66630000
H      -46.31870000     -28.76240000     -72.27280000
H      -45.31050000     -29.21270000     -73.52980000
C      -49.48800000     -32.89700000     -71.35080000
H      -50.38310000     -32.22680000     -71.19150000
H      -49.78770000     -33.81450000     -71.72010000
S      -44.52300000     -30.02120000     -71.46580000
S      -48.44470000     -33.01760000     -69.80800000
C      -44.00430000     -31.71990000     -71.95960000
H      -44.80990000     -32.47930000     -72.13760000
H      -43.44020000     -31.74560000     -72.88240000
C      -47.14020000     -34.12600000     -70.30660000
H      -47.05460000     -33.85420000     -71.38270000
H      -47.43480000     -35.17170000     -70.20910000
C      -45.84320000     -33.92160000     -69.46400000
H      -45.41880000     -32.97290000     -69.79000000
H      -46.12320000     -33.82640000     -68.43960000
C      -42.97530000     -32.23810000     -70.89060000
H      -43.43820000     -32.09750000     -69.93830000
H      -42.02030000     -31.76090000     -71.09530000
C      -42.75360000     -33.71110000     -71.01220000
C      -41.59000000     -34.18090000     -71.58880000
C      -43.55000000     -34.85090000     -70.42360000
H      -40.79030000     -33.61460000     -72.11380000
C      -42.85690000     -36.05890000     -70.54650000
C      -44.79580000     -35.00960000     -69.71580000
C      -45.03240000     -36.31930000     -69.39810000
S      -41.41290000     -35.95840000     -71.42480000
S      -43.71660000     -37.43860000     -69.86230000
H      -45.81970000     -36.68110000     -68.73660000
