40
Properties=species:S:1:pos:R:3 #=T CELL(abcABC):=T 1.889726e+02=T 90.00000=T Traj:=T positionsangstrom=T Step:=T 0=T Bead:=T pbc="F F F"
C      -46.14370000     -34.38760000     -75.28510000
C      -46.77860000     -34.73300000     -74.05050000
C      -46.26290000     -35.65530000     -73.17080000
C      -44.97930000     -36.19620000     -73.35230000
C      -44.29830000     -35.75100000     -74.49940000
C      -44.80640000     -34.89560000     -75.43440000
H      -46.64550000     -33.76530000     -75.96760000
H      -46.88110000     -35.90670000     -72.31860000
H      -43.31620000     -36.09940000     -74.72280000
H      -44.18350000     -34.84680000     -76.24240000
C      -44.30100000     -36.94330000     -72.20820000
H      -43.45060000     -37.49700000     -72.57300000
H      -44.92590000     -37.70540000     -71.71230000
C      -48.18780000     -34.17320000     -73.89350000
H      -48.97910000     -34.39770000     -74.60580000
H      -48.53670000     -34.52440000     -72.88310000
S      -43.88630000     -35.69930000     -70.92760000
S      -48.19500000     -32.33090000     -73.83910000
C      -42.82090000     -34.45730000     -71.77000000
H      -41.81050000     -34.59730000     -71.36210000
H      -42.73020000     -34.64380000     -72.85180000
C      -47.83650000     -31.87220000     -72.04770000
H      -48.50490000     -32.34130000     -71.29040000
H      -48.00040000     -30.76290000     -71.84790000
C      -46.39860000     -32.19580000     -71.61710000
H      -46.22970000     -33.23920000     -71.66070000
H      -45.60470000     -31.71870000     -72.23270000
C      -43.22480000     -33.02430000     -71.54330000
H      -44.09950000     -32.87880000     -72.18320000
H      -42.40580000     -32.32380000     -71.89190000
C      -43.59140000     -32.74560000     -70.04450000
C      -42.59860000     -32.74030000     -69.11270000
C      -44.85700000     -32.21050000     -69.57030000
H      -41.65640000     -33.11270000     -69.22920000
C      -44.78400000     -31.79900000     -68.22000000
C      -46.09340000     -31.81820000     -70.21040000
C      -46.85510000     -31.14620000     -69.31930000
S      -43.22840000     -32.10120000     -67.52900000
S      -46.17550000     -30.87070000     -67.73700000
H      -47.86990000     -30.82320000     -69.45250000
