40
Properties=species:S:1:pos:R:3 #=T CELL(abcABC):=T 1.889726e+02=T 90.00000=T Traj:=T positionsangstrom=T Step:=T 0=T Bead:=T pbc="F F F"
C      -42.75190000     -34.23360000     -68.27600000
C      -44.13570000     -33.88060000     -68.13020000
C      -44.54670000     -32.60070000     -68.46970000
C      -43.63350000     -31.63440000     -68.85680000
C      -42.25850000     -31.94330000     -69.10660000
C      -41.88790000     -33.25150000     -68.84940000
H      -42.47230000     -35.33310000     -68.10490000
H      -45.58650000     -32.34330000     -68.30260000
H      -41.54360000     -31.26340000     -69.62790000
H      -40.83020000     -33.47410000     -69.01720000
C      -44.04140000     -30.26590000     -69.29140000
H      -43.19140000     -29.89260000     -69.94850000
H      -44.12180000     -29.56090000     -68.45600000
C      -45.03590000     -34.90520000     -67.58620000
H      -44.52600000     -35.89220000     -67.62360000
H      -45.17410000     -34.70810000     -66.45940000
S      -45.69110000     -30.07970000     -70.09800000
S      -46.70460000     -35.18370000     -68.30100000
C      -45.35720000     -31.06450000     -71.64090000
H      -44.69940000     -30.48350000     -72.24830000
H      -44.94190000     -31.99030000     -71.20700000
C      -46.31670000     -35.70370000     -70.01670000
H      -47.03530000     -36.38220000     -70.39290000
H      -45.28670000     -36.07200000     -70.13630000
C      -46.43690000     -34.41630000     -70.92130000
H      -47.38810000     -33.93260000     -70.65270000
H      -45.55440000     -33.76250000     -70.66900000
C      -46.67520000     -31.41240000     -72.37880000
H      -47.08110000     -30.51310000     -72.86860000
H      -47.33990000     -31.82820000     -71.63120000
C      -46.30100000     -32.39270000     -73.45520000
C      -46.07230000     -31.89820000     -74.71390000
C      -46.15340000     -33.80580000     -73.40340000
H      -46.43000000     -30.98510000     -75.11620000
C      -45.80010000     -34.36160000     -74.65780000
C      -46.21000000     -34.79780000     -72.34930000
C      -45.96890000     -36.08370000     -72.85080000
S      -45.59570000     -33.14570000     -75.94670000
S      -45.67080000     -36.11850000     -74.59310000
H      -45.75170000     -37.04080000     -72.25900000
