40
Properties=species:S:1:pos:R:3 #=T CELL(abcABC):=T 1.889726e+02=T 90.00000=T Traj:=T positionsangstrom=T Step:=T 0=T Bead:=T pbc="F F F"
C      -47.52000000     -35.05900000     -74.89460000
C      -46.30900000     -34.85080000     -74.33690000
C      -45.77410000     -33.53130000     -74.17570000
C      -46.51740000     -32.40960000     -74.50990000
C      -47.81960000     -32.62440000     -75.12740000
C      -48.28610000     -33.97070000     -75.29600000
H      -47.94250000     -35.96820000     -74.99610000
H      -44.70320000     -33.39340000     -73.83510000
H      -48.54850000     -31.85130000     -75.46980000
H      -49.19330000     -34.19100000     -75.83120000
C      -46.03320000     -31.01800000     -74.33410000
H      -46.46340000     -30.36510000     -75.14500000
H      -44.94100000     -30.98470000     -74.43710000
C      -45.54150000     -36.11930000     -74.06670000
H      -46.05210000     -36.83050000     -73.36560000
H      -45.41980000     -36.73240000     -75.00730000
S      -46.61710000     -30.33150000     -72.73850000
S      -43.71360000     -36.03250000     -73.45380000
C      -46.22610000     -31.51560000     -71.42740000
H      -46.90250000     -31.28550000     -70.64010000
H      -46.29180000     -32.57570000     -71.70480000
C      -43.90780000     -36.06230000     -71.60560000
H      -42.99280000     -36.39840000     -71.15140000
H      -44.70260000     -36.80080000     -71.45500000
C      -44.29280000     -34.64600000     -71.18430000
H      -43.56600000     -33.89720000     -71.65680000
H      -45.24000000     -34.48660000     -71.67370000
C      -44.84480000     -31.17850000     -70.82170000
H      -44.72690000     -30.07280000     -70.81810000
H      -44.00850000     -31.47730000     -71.44750000
C      -44.67590000     -31.73620000     -69.41140000
C      -44.64810000     -30.83870000     -68.30560000
C      -44.56320000     -33.15450000     -69.06660000
H      -44.62680000     -29.73960000     -68.34800000
C      -44.48950000     -33.28110000     -67.71890000
C      -44.39490000     -34.41920000     -69.73170000
C      -44.32760000     -35.43260000     -68.85440000
S      -44.64710000     -31.77600000     -66.85300000
S      -44.35490000     -34.93740000     -67.13300000
H      -44.20050000     -36.45540000     -69.13770000
