40
Properties=species:S:1:pos:R:3 #=T CELL(abcABC):=T 1.889726e+02=T 90.00000=T Traj:=T positionsangstrom=T Step:=T 0=T Bead:=T pbc="F F F"
C      -49.38140000     -32.91560000     -72.98570000
C      -48.86880000     -32.31270000     -71.77450000
C      -47.92780000     -31.32940000     -71.92180000
C      -47.36810000     -31.02630000     -73.16500000
C      -47.82860000     -31.66630000     -74.33510000
C      -48.91650000     -32.54070000     -74.25190000
H      -50.24580000     -33.49210000     -72.86900000
H      -47.52130000     -30.85390000     -71.06560000
H      -47.26880000     -31.52690000     -75.28300000
H      -49.34840000     -33.06760000     -75.07040000
C      -46.23660000     -30.04370000     -73.27770000
H      -46.60210000     -29.00320000     -73.23970000
H      -45.65540000     -30.19630000     -74.24550000
C      -49.41490000     -32.65350000     -70.39990000
H      -49.82600000     -31.69970000     -69.89290000
H      -50.17860000     -33.45810000     -70.37930000
S      -45.02980000     -30.12680000     -71.90120000
S      -48.00120000     -33.09670000     -69.22670000
C      -44.30790000     -31.81240000     -72.13410000
H      -45.03320000     -32.60450000     -72.29570000
H      -43.72060000     -31.79130000     -73.07720000
C      -46.75360000     -34.11360000     -70.04830000
H      -46.55490000     -33.64800000     -70.96250000
H      -47.05620000     -35.09060000     -70.40150000
C      -45.48460000     -34.23150000     -69.17210000
H      -45.10980000     -33.22120000     -68.91790000
H      -45.79190000     -34.70740000     -68.19030000
C      -43.47290000     -32.10550000     -70.94010000
H      -44.05290000     -32.03600000     -70.03460000
H      -42.72670000     -31.36270000     -70.79250000
C      -42.76440000     -33.43460000     -71.08280000
C      -41.65370000     -33.63710000     -71.87020000
C      -43.33470000     -34.68640000     -70.63160000
H      -41.08160000     -32.79130000     -72.26550000
C      -42.46170000     -35.73440000     -70.87090000
C      -44.41900000     -35.13780000     -69.76670000
C      -44.39530000     -36.47450000     -69.51980000
S      -41.06400000     -35.32570000     -71.82100000
S      -43.04400000     -37.27390000     -70.32150000
H      -45.11210000     -37.01270000     -68.85160000
