40
Properties=species:S:1:pos:R:3 #=T CELL(abcABC):=T 1.889726e+02=T 90.00000=T Traj:=T positionsangstrom=T Step:=T 0=T Bead:=T pbc="F F F"
C      -48.31610000     -33.43590000     -72.98030000
C      -48.45090000     -32.53540000     -71.86560000
C      -47.80760000     -31.31170000     -71.91710000
C      -46.95880000     -30.96190000     -73.02320000
C      -46.97990000     -31.81760000     -74.13880000
C      -47.66140000     -33.03680000     -74.09610000
H      -48.79270000     -34.43240000     -72.95330000
H      -47.95030000     -30.61360000     -71.13700000
H      -46.21630000     -31.54380000     -74.94690000
H      -47.51790000     -33.63380000     -74.99370000
C      -46.13340000     -29.69480000     -73.14080000
H      -46.63180000     -28.76310000     -72.84610000
H      -45.78800000     -29.53580000     -74.18000000
C      -49.25320000     -32.84090000     -70.67920000
H      -49.94490000     -31.97080000     -70.50860000
H      -49.87930000     -33.67280000     -70.74390000
S      -44.70450000     -29.91800000     -71.98750000
S      -48.17410000     -32.81670000     -69.14720000
C      -44.30100000     -31.75210000     -72.06960000
H      -45.17590000     -32.40610000     -71.92560000
H      -43.74790000     -31.95730000     -72.98080000
C      -46.91340000     -33.92550000     -69.78280000
H      -46.64180000     -33.63110000     -70.78800000
H      -47.46510000     -34.85150000     -69.83340000
C      -45.57430000     -34.13980000     -68.97890000
H      -45.17410000     -33.18580000     -68.80450000
H      -45.83490000     -34.46840000     -67.97030000
C      -43.49470000     -32.10710000     -70.78560000
H      -44.12780000     -31.99130000     -69.89790000
H      -42.63950000     -31.41150000     -70.48080000
C      -42.94990000     -33.48860000     -70.96370000
C      -41.87970000     -33.70510000     -71.81900000
C      -43.49530000     -34.71100000     -70.46290000
H      -41.51160000     -32.94700000     -72.56500000
C      -42.90670000     -35.84710000     -71.00810000
C      -44.62090000     -35.07000000     -69.61530000
C      -44.74830000     -36.41020000     -69.47950000
S      -41.65510000     -35.41950000     -72.20570000
S      -43.63130000     -37.30490000     -70.47550000
H      -45.53520000     -36.97790000     -68.91650000
