40
Properties=species:S:1:pos:R:3 #=T CELL(abcABC):=T 1.889726e+02=T 90.00000=T Traj:=T positionsangstrom=T Step:=T 0=T Bead:=T pbc="F F F"
C      -49.47390000     -32.93130000     -72.94800000
C      -48.80970000     -32.49510000     -71.78560000
C      -47.88290000     -31.50380000     -71.91000000
C      -47.57690000     -30.98870000     -73.14860000
C      -48.30170000     -31.37150000     -74.27450000
C      -49.29080000     -32.40150000     -74.18630000
H      -50.27850000     -33.73850000     -72.80770000
H      -47.26570000     -31.13190000     -71.09960000
H      -48.05330000     -31.05850000     -75.27150000
H      -49.88060000     -32.78220000     -75.06810000
C      -46.34670000     -30.04190000     -73.36900000
H      -46.73330000     -29.02840000     -73.35060000
H      -45.97020000     -30.17030000     -74.38750000
C      -49.22420000     -33.10740000     -70.50040000
H      -50.11160000     -32.60490000     -70.11120000
H      -49.55120000     -34.15410000     -70.70700000
S      -44.90610000     -30.12110000     -72.24800000
S      -47.98460000     -33.07660000     -69.12970000
C      -44.32680000     -31.79980000     -72.31110000
H      -45.11770000     -32.51100000     -72.55290000
H      -43.59450000     -31.89060000     -73.07900000
C      -46.71170000     -34.12060000     -69.92800000
H      -46.48010000     -33.55880000     -70.81530000
H      -47.11630000     -35.03690000     -70.27250000
C      -45.46880000     -34.37530000     -69.00210000
H      -45.18440000     -33.33370000     -68.79770000
H      -45.74400000     -34.84750000     -68.07920000
C      -43.62850000     -32.07200000     -71.00110000
H      -44.38580000     -32.16720000     -70.25570000
H      -42.94790000     -31.22270000     -70.77390000
C      -42.83360000     -33.38270000     -71.05460000
C      -41.65920000     -33.53730000     -71.77760000
C      -43.31660000     -34.71570000     -70.57640000
H      -41.08920000     -32.84140000     -72.41510000
C      -42.39370000     -35.72550000     -70.85780000
C      -44.35400000     -35.15590000     -69.68130000
C      -44.23960000     -36.48650000     -69.47560000
S      -41.03000000     -35.19400000     -71.82140000
S      -42.85240000     -37.24820000     -70.17760000
H      -44.91200000     -37.06440000     -68.90400000
