40
Properties=species:S:1:pos:R:3 #=T CELL(abcABC):=T 1.889726e+02=T 90.00000=T Traj:=T positionsangstrom=T Step:=T 0=T Bead:=T pbc="F F F"
C      -48.65860000     -33.32740000     -72.93790000
C      -48.63700000     -32.46390000     -71.87170000
C      -47.91710000     -31.27300000     -71.94220000
C      -47.13060000     -30.96660000     -73.08160000
C      -47.18890000     -31.84900000     -74.21130000
C      -47.95960000     -32.96450000     -74.11920000
H      -49.32140000     -34.22220000     -72.88020000
H      -47.79810000     -30.59750000     -71.10860000
H      -46.82110000     -31.45470000     -75.17350000
H      -48.01370000     -33.60770000     -74.98500000
C      -46.26620000     -29.74820000     -73.16860000
H      -46.87070000     -28.88840000     -72.97300000
H      -45.74450000     -29.65420000     -74.14440000
C      -49.25620000     -32.81120000     -70.54440000
H      -50.03180000     -32.03710000     -70.31720000
H      -49.68880000     -33.83020000     -70.65410000
S      -44.95140000     -29.94530000     -71.92700000
S      -48.06040000     -32.89670000     -69.12360000
C      -44.21320000     -31.55910000     -72.21290000
H      -44.96800000     -32.26190000     -72.50120000
H      -43.50450000     -31.56580000     -73.09170000
C      -46.68410000     -33.94830000     -69.82380000
H      -46.39950000     -33.51240000     -70.78270000
H      -47.08550000     -34.97280000     -70.10640000
C      -45.48410000     -34.11960000     -68.89520000
H      -45.00250000     -33.17310000     -68.73760000
H      -45.74240000     -34.57610000     -67.91000000
C      -43.46140000     -32.04830000     -70.94950000
H      -44.13880000     -32.04370000     -70.12210000
H      -42.68240000     -31.30140000     -70.79730000
C      -42.90380000     -33.48670000     -71.11790000
C      -41.81060000     -33.75000000     -71.92030000
C      -43.45020000     -34.70250000     -70.56310000
H      -41.09890000     -33.08760000     -72.45490000
C      -42.88040000     -35.86000000     -71.11000000
C      -44.57680000     -35.06720000     -69.70320000
C      -44.70340000     -36.44380000     -69.53210000
S      -41.37430000     -35.45880000     -71.91570000
S      -43.50830000     -37.31400000     -70.47060000
H      -45.49050000     -37.04630000     -69.08600000
