40
Properties=species:S:1:pos:R:3 #=T CELL(abcABC):=T 1.889726e+02=T 90.00000=T Traj:=T positionsangstrom=T Step:=T 0=T Bead:=T pbc="F F F"
C      -49.26710000     -33.01830000     -72.93730000
C      -48.93700000     -32.27350000     -71.79570000
C      -47.92210000     -31.29360000     -71.94920000
C      -47.33870000     -30.99910000     -73.15840000
C      -47.64690000     -31.74690000     -74.27930000
C      -48.58780000     -32.82220000     -74.12640000
H      -50.01520000     -33.76030000     -72.76780000
H      -47.59830000     -30.76690000     -71.00740000
H      -47.12150000     -31.50460000     -75.20890000
H      -48.91050000     -33.45850000     -74.95660000
C      -46.25290000     -29.98730000     -73.23090000
H      -46.56920000     -28.97240000     -73.27090000
H      -45.73650000     -30.20800000     -74.12400000
C      -49.40080000     -32.73790000     -70.40280000
H      -50.08450000     -32.01340000     -69.96580000
H      -49.94920000     -33.64600000     -70.45890000
S      -45.01940000     -30.07480000     -71.78840000
S      -48.03400000     -32.86320000     -69.14950000
C      -44.26560000     -31.72200000     -72.10010000
H      -45.08460000     -32.48360000     -72.14800000
H      -43.65750000     -31.76940000     -73.00010000
C      -46.78630000     -33.92240000     -70.17870000
H      -46.44570000     -33.21910000     -71.02280000
H      -47.26700000     -34.88970000     -70.54260000
C      -45.65180000     -34.27870000     -69.23190000
H      -45.19560000     -33.37970000     -68.87100000
H      -46.01930000     -34.73680000     -68.36970000
C      -43.35610000     -32.07120000     -70.90950000
H      -44.00260000     -32.02750000     -69.96980000
H      -42.63430000     -31.23150000     -70.75600000
C      -42.71320000     -33.46370000     -71.03520000
C      -41.60430000     -33.71600000     -71.82910000
C      -43.34720000     -34.73560000     -70.64170000
H      -41.01630000     -33.01940000     -72.35780000
C      -42.49410000     -35.78470000     -70.91280000
C      -44.52460000     -35.17580000     -69.91250000
C      -44.51380000     -36.53440000     -69.67250000
S      -41.16590000     -35.37400000     -71.97020000
S      -43.07480000     -37.33160000     -70.30490000
H      -45.17440000     -37.09360000     -69.00860000
