40
Properties=species:S:1:pos:R:3 #=T CELL(abcABC):=T 1.889726e+02=T 90.00000=T Traj:=T positionsangstrom=T Step:=T 0=T Bead:=T pbc="F F F"
C      -47.90880000     -33.38180000     -73.08470000
C      -48.31500000     -32.41750000     -72.15160000
C      -47.72960000     -31.15080000     -72.24620000
C      -46.71610000     -30.84450000     -73.18200000
C      -46.46820000     -31.75110000     -74.19360000
C      -47.07800000     -33.01070000     -74.20280000
H      -48.48020000     -34.38860000     -73.04920000
H      -47.97240000     -30.45210000     -71.43500000
H      -45.84860000     -31.50480000     -75.04680000
H      -46.96790000     -33.73710000     -74.92710000
C      -45.88400000     -29.62760000     -73.06770000
H      -46.36310000     -28.71570000     -72.83410000
H      -45.32490000     -29.52500000     -74.02350000
C      -49.25880000     -32.70860000     -70.99630000
H      -49.96230000     -31.81400000     -70.91600000
H      -49.87040000     -33.57520000     -71.12500000
S      -44.64180000     -29.87390000     -71.66550000
S      -48.36170000     -32.86680000     -69.33030000
C      -44.64870000     -31.69630000     -71.44320000
H      -45.47870000     -32.03830000     -70.86280000
H      -44.68150000     -32.19530000     -72.44430000
C      -47.02530000     -34.22460000     -69.79720000
H      -46.87860000     -34.11260000     -70.87200000
H      -47.43970000     -35.20150000     -69.52320000
C      -45.78220000     -33.96830000     -68.94810000
H      -45.37280000     -32.94290000     -69.00460000
H      -46.00220000     -34.23500000     -67.91300000
C      -43.35480000     -32.12890000     -70.84290000
H      -43.37200000     -32.07330000     -69.72960000
H      -42.53200000     -31.48270000     -71.17920000
C      -43.05150000     -33.54180000     -71.16210000
C      -42.04690000     -33.86480000     -72.03740000
C      -43.67660000     -34.73510000     -70.55080000
H      -41.55030000     -33.16960000     -72.59300000
C      -43.08260000     -35.88750000     -71.06900000
C      -44.79660000     -34.96550000     -69.58730000
C      -44.82890000     -36.29740000     -69.26020000
S      -41.82760000     -35.64270000     -72.24720000
S      -43.66210000     -37.29720000     -70.20510000
H      -45.48170000     -36.79780000     -68.57860000
