40
Properties=species:S:1:pos:R:3 #=T CELL(abcABC):=T 1.889726e+02=T 90.00000=T Traj:=T positionsangstrom=T Step:=T 0=T Bead:=T pbc="F F F"
C      -49.16180000     -33.54060000     -72.48820000
C      -48.98970000     -32.52350000     -71.50920000
C      -48.32910000     -31.35160000     -71.98460000
C      -47.70250000     -31.28920000     -73.25500000
C      -47.79770000     -32.43140000     -74.13680000
C      -48.50990000     -33.55140000     -73.70390000
H      -49.71460000     -34.47690000     -72.15580000
H      -48.14850000     -30.62750000     -71.25490000
H      -47.19990000     -32.55150000     -75.08350000
H      -48.70030000     -34.45890000     -74.22270000
C      -46.70350000     -30.17390000     -73.59920000
H      -47.11890000     -29.17750000     -73.49400000
H      -46.18830000     -30.23680000     -74.59070000
C      -49.44470000     -32.69620000     -70.04850000
H      -50.07500000     -31.86840000     -69.66120000
H      -50.12670000     -33.56320000     -69.96220000
S      -45.20760000     -30.23450000     -72.41270000
S      -47.96110000     -32.69940000     -68.86980000
C      -44.66510000     -32.04200000     -72.66320000
H      -45.39840000     -32.75070000     -72.22470000
H      -44.70940000     -32.27140000     -73.73930000
C      -46.80990000     -34.13420000     -69.33630000
H      -47.12650000     -34.67260000     -70.28530000
H      -46.79340000     -34.87020000     -68.46730000
C      -45.40090000     -33.58050000     -69.47960000
H      -45.31700000     -32.78240000     -70.15250000
H      -45.05580000     -33.23580000     -68.44780000
C      -43.29400000     -32.12270000     -71.99040000
H      -43.41490000     -31.58260000     -71.05290000
H      -42.49470000     -31.66910000     -72.54190000
C      -42.73490000     -33.52790000     -71.70750000
C      -41.69390000     -33.88560000     -72.49590000
C      -43.25350000     -34.51550000     -70.83040000
H      -41.26790000     -33.26600000     -73.32570000
C      -42.34570000     -35.60180000     -70.78660000
C      -44.31500000     -34.62350000     -69.81690000
C      -44.11950000     -35.79550000     -69.07060000
S      -41.10980000     -35.46810000     -72.07510000
S      -42.73190000     -36.76260000     -69.59350000
H      -44.78630000     -36.20490000     -68.34100000
