40
Properties=species:S:1:pos:R:3 #=T CELL(abcABC):=T 1.889726e+02=T 90.00000=T Traj:=T positionsangstrom=T Step:=T 0=T Bead:=T pbc="F F F"
C      -49.62770000     -32.92010000     -72.78200000
C      -48.86150000     -32.41310000     -71.76560000
C      -47.79090000     -31.57760000     -72.01600000
C      -47.59720000     -31.06750000     -73.27890000
C      -48.39420000     -31.59930000     -74.37010000
C      -49.38250000     -32.51450000     -74.12610000
H      -50.41420000     -33.57620000     -72.61120000
H      -47.16310000     -31.15380000     -71.21870000
H      -48.26810000     -31.12930000     -75.35370000
H      -50.04970000     -32.84440000     -74.91580000
C      -46.51110000     -30.17130000     -73.64380000
H      -46.88030000     -29.17870000     -73.94910000
H      -46.04850000     -30.63490000     -74.47990000
C      -49.06950000     -32.89480000     -70.32630000
H      -49.84340000     -32.30030000     -69.87140000
H      -49.51660000     -33.89550000     -70.39510000
S      -45.19180000     -29.89160000     -72.36630000
S      -47.60790000     -32.97760000     -69.23740000
C      -44.38730000     -31.60930000     -72.37490000
H      -45.13070000     -32.29280000     -72.64630000
H      -43.67020000     -31.56100000     -73.17790000
C      -46.75880000     -34.39180000     -69.93620000
H      -46.36930000     -34.33840000     -70.92880000
H      -47.42320000     -35.25520000     -69.86030000
C      -45.53010000     -34.59120000     -69.00560000
H      -45.12290000     -33.60480000     -68.76500000
H      -45.72630000     -35.07080000     -67.99650000
C      -43.81220000     -32.13660000     -71.04620000
H      -44.67690000     -32.31400000     -70.37190000
H      -43.21810000     -31.32270000     -70.60910000
C      -42.98350000     -33.45410000     -71.12930000
C      -41.81150000     -33.53670000     -71.87640000
C      -43.30210000     -34.76050000     -70.47580000
H      -41.29450000     -32.70940000     -72.27240000
C      -42.33170000     -35.74700000     -70.78470000
C      -44.35500000     -35.28890000     -69.62820000
C      -44.07300000     -36.57900000     -69.31120000
S      -41.08070000     -35.13970000     -71.81480000
S      -42.58390000     -37.19790000     -69.94440000
H      -44.59770000     -37.33640000     -68.70130000
