40
Properties=species:S:1:pos:R:3 #=T CELL(abcABC):=T 1.889726e+02=T 90.00000=T Traj:=T positionsangstrom=T Step:=T 0=T Bead:=T pbc="F F F"
C      -48.24480000     -32.70380000     -69.99570000
C      -47.65690000     -31.44190000     -70.08220000
C      -46.38900000     -31.14680000     -69.48240000
C      -45.88890000     -32.13080000     -68.65240000
C      -46.55370000     -33.34340000     -68.46390000
C      -47.73260000     -33.66310000     -69.13120000
H      -49.22960000     -32.95150000     -70.46380000
H      -45.94540000     -30.19500000     -69.47580000
H      -46.08920000     -33.92370000     -67.66040000
H      -48.06830000     -34.71660000     -69.14720000
C      -44.48330000     -31.88310000     -68.08710000
H      -44.48490000     -31.51080000     -67.07880000
H      -43.91670000     -31.06640000     -68.60050000
C      -48.29980000     -30.38080000     -70.94130000
H      -49.17980000     -30.73660000     -71.34170000
H      -48.72480000     -29.53340000     -70.35610000
S      -43.33920000     -33.50650000     -68.14410000
S      -47.13330000     -29.83830000     -72.38900000
C      -42.32950000     -33.29840000     -69.67380000
H      -41.63280000     -32.41340000     -69.57540000
H      -41.61450000     -34.15700000     -69.80110000
C      -46.88990000     -31.45020000     -73.24320000
H      -46.94580000     -31.12390000     -74.27000000
H      -47.77430000     -32.09060000     -73.11600000
C      -45.55750000     -32.21090000     -72.75050000
H      -44.77940000     -31.56690000     -73.00300000
H      -45.64130000     -32.31100000     -71.72310000
C      -43.09780000     -33.17860000     -70.92490000
H      -42.46080000     -32.57770000     -71.58570000
H      -43.92780000     -32.52340000     -70.76410000
C      -43.56690000     -34.54580000     -71.58660000
C      -43.04650000     -35.74960000     -71.27250000
C      -44.37600000     -34.49410000     -72.72090000
H      -42.48810000     -35.89520000     -70.36980000
C      -44.44460000     -35.77290000     -73.25590000
C      -45.32470000     -33.57310000     -73.36650000
C      -45.91710000     -34.18450000     -74.41150000
S      -43.61820000     -37.04710000     -72.33690000
S      -45.41290000     -35.83830000     -74.63940000
H      -46.61230000     -33.70460000     -75.07310000
