40
Properties=species:S:1:pos:R:3 #=T CELL(abcABC):=T 1.889726e+02=T 90.00000=T Traj:=T positionsangstrom=T Step:=T 0=T Bead:=T pbc="F F F"
C      -47.96370000     -35.17210000     -73.54680000
C      -47.75370000     -35.51030000     -72.18420000
C      -46.47690000     -36.09540000     -71.80990000
C      -45.44790000     -36.31800000     -72.79180000
C      -45.70010000     -35.92380000     -74.14270000
C      -46.95620000     -35.36200000     -74.51700000
H      -48.94230000     -34.74400000     -73.75800000
H      -46.25360000     -36.32540000     -70.78990000
H      -44.98250000     -36.21600000     -74.88110000
H      -47.17710000     -35.10410000     -75.55970000
C      -44.16370000     -36.89380000     -72.34960000
H      -43.52500000     -37.29360000     -73.18020000
H      -44.32120000     -37.67700000     -71.60070000
C      -48.90960000     -35.34770000     -71.22120000
H      -49.64730000     -36.06160000     -71.59480000
H      -48.56560000     -35.74070000     -70.22030000
S      -43.27270000     -35.59960000     -71.32820000
S      -49.50770000     -33.64100000     -71.02240000
C      -42.88450000     -34.34460000     -72.69210000
H      -41.89520000     -33.92640000     -72.46270000
H      -42.82100000     -34.91870000     -73.70970000
C      -48.01640000     -32.83610000     -70.26920000
H      -47.83450000     -33.19540000     -69.27340000
H      -48.34090000     -31.87400000     -70.21280000
C      -46.60310000     -32.90510000     -70.93460000
H      -46.22630000     -34.00880000     -70.99640000
H      -46.62210000     -32.62710000     -72.01210000
C      -43.81040000     -33.15190000     -72.86950000
H      -44.87510000     -33.37680000     -72.66770000
H      -43.79070000     -32.72650000     -73.84110000
C      -43.43330000     -32.08310000     -71.79120000
C      -42.24680000     -31.36890000     -71.88610000
C      -44.26790000     -31.72380000     -70.65630000
H      -41.49470000     -31.52370000     -72.55440000
C      -43.61200000     -30.87300000     -69.81980000
C      -45.62500000     -32.03650000     -70.16870000
C      -45.87140000     -31.30920000     -69.04500000
S      -41.98890000     -30.36830000     -70.40720000
S      -44.61140000     -30.22060000     -68.49580000
H      -46.78790000     -31.22680000     -68.49280000
