40
Properties=species:S:1:pos:R:3 #=T CELL(abcABC):=T 1.889726e+02=T 90.00000=T Traj:=T positionsangstrom=T Step:=T 0=T Bead:=T pbc="F F F"
C      -47.73120000     -34.90090000     -73.63140000
C      -47.66680000     -35.47150000     -72.33800000
C      -46.52760000     -36.11060000     -71.94710000
C      -45.43480000     -36.29040000     -72.84720000
C      -45.50820000     -35.84240000     -74.17940000
C      -46.69180000     -35.14100000     -74.56630000
H      -48.57360000     -34.25840000     -73.93540000
H      -46.36700000     -36.45950000     -70.87500000
H      -44.63990000     -35.96770000     -74.89270000
H      -46.87820000     -34.71910000     -75.54170000
C      -44.06560000     -36.98190000     -72.48850000
H      -43.66700000     -37.29170000     -73.46490000
H      -44.24890000     -37.79870000     -71.78420000
C      -48.84650000     -35.31450000     -71.41410000
H      -49.73370000     -35.84640000     -71.72890000
H      -48.47930000     -35.58380000     -70.40730000
S      -42.84180000     -35.85030000     -71.73290000
S      -49.54400000     -33.65320000     -71.34740000
C      -42.80440000     -34.41340000     -72.77910000
H      -41.74220000     -34.05120000     -72.89300000
H      -43.05650000     -34.74790000     -73.81580000
C      -48.24680000     -32.79610000     -70.26950000
H      -48.22690000     -33.39580000     -69.41520000
H      -48.60120000     -31.80550000     -69.88520000
C      -46.75100000     -32.73910000     -70.73750000
H      -46.35680000     -33.74500000     -70.69670000
H      -46.79120000     -32.34780000     -71.82920000
C      -43.88810000     -33.27630000     -72.54510000
H      -44.87160000     -33.64270000     -72.38890000
H      -43.90150000     -32.72710000     -73.51760000
C      -43.55010000     -32.18240000     -71.51420000
C      -42.22780000     -31.73170000     -71.40750000
C      -44.40020000     -31.69710000     -70.41610000
H      -41.44900000     -31.92460000     -72.15860000
C      -43.75900000     -30.70110000     -69.64630000
C      -45.74790000     -31.91970000     -70.01890000
C      -46.12180000     -31.14600000     -68.94930000
S      -42.03890000     -30.55690000     -70.10400000
S      -44.85360000     -30.02950000     -68.44570000
H      -47.06890000     -31.11380000     -68.51970000
