40
Properties=species:S:1:pos:R:3 #=T CELL(abcABC):=T 1.889726e+02=T 90.00000=T Traj:=T positionsangstrom=T Step:=T 0=T Bead:=T pbc="F F F"
C      -48.95510000     -34.01210000     -72.58790000
C      -48.74300000     -32.89720000     -71.73870000
C      -48.07930000     -31.80400000     -72.35100000
C      -47.52640000     -31.86630000     -73.62820000
C      -47.85440000     -32.99100000     -74.44680000
C      -48.51080000     -34.04780000     -73.89400000
H      -49.27130000     -34.94550000     -72.09810000
H      -47.80440000     -30.87990000     -71.86090000
H      -47.50840000     -32.80220000     -75.42080000
H      -48.66350000     -34.92190000     -74.51040000
C      -46.67990000     -30.77040000     -74.24600000
H      -47.21890000     -29.81820000     -74.16700000
H      -46.69080000     -30.97880000     -75.32220000
C      -49.33620000     -32.71660000     -70.34360000
H      -49.79700000     -31.75130000     -70.41300000
H      -50.08000000     -33.46500000     -70.15950000
S      -45.03190000     -30.48210000     -73.36410000
S      -48.01880000     -32.53850000     -69.08050000
C      -44.65440000     -32.10850000     -72.58110000
H      -45.52250000     -32.39150000     -72.04280000
H      -44.45260000     -32.79250000     -73.36680000
C      -46.79570000     -33.96330000     -69.32820000
H      -46.97600000     -34.36230000     -70.34780000
H      -46.99430000     -34.78560000     -68.57610000
C      -45.48040000     -33.36320000     -69.10480000
H      -45.29790000     -32.46400000     -69.71840000
H      -45.45790000     -32.91540000     -68.04610000
C      -43.50400000     -31.91460000     -71.67290000
H      -43.98360000     -31.42840000     -70.76990000
H      -42.87120000     -31.17310000     -72.13100000
C      -42.81350000     -33.16750000     -71.33780000
C      -41.73580000     -33.61150000     -72.05810000
C      -43.21580000     -34.09340000     -70.29760000
H      -41.24700000     -33.20650000     -72.90020000
C      -42.47780000     -35.30070000     -70.40740000
C      -44.29140000     -34.29740000     -69.34470000
C      -44.20770000     -35.53490000     -68.66920000
S      -41.20800000     -35.26230000     -71.60630000
S      -42.87140000     -36.45560000     -69.19970000
H      -44.87020000     -35.94840000     -67.93110000
