40
Properties=species:S:1:pos:R:3 #=T CELL(abcABC):=T 1.889726e+02=T 90.00000=T Traj:=T positionsangstrom=T Step:=T 0=T Bead:=T pbc="F F F"
C      -49.00080000     -33.74810000     -72.32420000
C      -48.79610000     -32.66450000     -71.44320000
C      -48.01960000     -31.65080000     -71.94360000
C      -47.65740000     -31.52640000     -73.29540000
C      -47.91820000     -32.59470000     -74.18970000
C      -48.45250000     -33.73760000     -73.59860000
H      -49.54210000     -34.61470000     -72.02780000
H      -47.80370000     -30.87040000     -71.21510000
H      -47.56730000     -32.49960000     -75.19920000
H      -48.56370000     -34.59390000     -74.22580000
C      -46.86390000     -30.23330000     -73.65670000
H      -47.45570000     -29.31600000     -73.44150000
H      -46.56630000     -30.28070000     -74.68280000
C      -49.31050000     -32.77990000     -69.98850000
H      -49.85220000     -31.85620000     -69.74570000
H      -49.96330000     -33.66680000     -69.92400000
S      -45.19440000     -30.13300000     -72.73110000
S      -47.93050000     -32.68000000     -68.91820000
C      -44.72070000     -31.93210000     -72.65250000
H      -45.51790000     -32.53540000     -72.27430000
H      -44.37250000     -32.26890000     -73.64050000
C      -46.79670000     -33.88490000     -69.72310000
H      -46.90760000     -33.90990000     -70.79200000
H      -46.99130000     -34.84450000     -69.30630000
C      -45.33100000     -33.51360000     -69.41950000
H      -45.08180000     -32.58750000     -69.91570000
H      -45.23660000     -33.27900000     -68.36700000
C      -43.42890000     -32.09790000     -71.74890000
H      -43.57470000     -31.62200000     -70.75580000
H      -42.70750000     -31.39110000     -72.21280000
C      -42.76160000     -33.47260000     -71.66720000
C      -41.67980000     -33.80140000     -72.35860000
C      -43.23410000     -34.45250000     -70.76800000
H      -41.17710000     -33.19780000     -73.16430000
C      -42.46230000     -35.56910000     -70.72050000
C      -44.35580000     -34.55180000     -69.82240000
C      -44.28060000     -35.73940000     -69.11710000
S      -41.07200000     -35.41940000     -71.86680000
S      -42.88740000     -36.75170000     -69.60620000
H      -44.79350000     -35.95390000     -68.20880000
