40
Properties=species:S:1:pos:R:3 #=T CELL(abcABC):=T 1.889726e+02=T 90.00000=T Traj:=T positionsangstrom=T Step:=T 0=T Bead:=T pbc="F F F"
C      -48.01360000     -35.20590000     -73.54840000
C      -47.85970000     -35.71600000     -72.23000000
C      -46.67340000     -36.32510000     -71.79290000
C      -45.56680000     -36.46230000     -72.75170000
C      -45.73160000     -35.94450000     -74.03830000
C      -46.98720000     -35.44150000     -74.43540000
H      -48.90500000     -34.57880000     -73.67300000
H      -46.56360000     -36.76050000     -70.77040000
H      -44.83150000     -35.85740000     -74.64670000
H      -46.94450000     -35.04890000     -75.46610000
C      -44.26910000     -36.85570000     -72.12730000
H      -43.65720000     -37.15620000     -73.00260000
H      -44.30140000     -37.56170000     -71.36400000
C      -48.92070000     -35.43090000     -71.17960000
H      -49.85200000     -35.76820000     -71.49600000
H      -48.71900000     -35.78450000     -70.15410000
S      -43.42650000     -35.31710000     -71.26150000
S      -49.35880000     -33.59520000     -71.01540000
C      -42.81080000     -34.39280000     -72.75560000
H      -41.81080000     -34.16510000     -72.59060000
H      -42.73290000     -35.06560000     -73.63130000
C      -48.06380000     -32.73540000     -70.03030000
H      -47.98830000     -33.10210000     -68.96940000
H      -48.49670000     -31.68180000     -69.81950000
C      -46.74320000     -32.73410000     -70.86770000
H      -46.39650000     -33.77400000     -70.92100000
H      -46.83870000     -32.35220000     -71.85410000
C      -43.66460000     -33.18520000     -72.97670000
H      -44.74190000     -33.46340000     -73.13150000
H      -43.31510000     -32.82750000     -73.96340000
C      -43.48330000     -32.09740000     -71.93660000
C      -42.24740000     -31.48420000     -71.94900000
C      -44.31150000     -31.64600000     -70.79070000
H      -41.48860000     -31.69360000     -72.66370000
C      -43.60120000     -30.70120000     -69.97230000
C      -45.64450000     -31.93320000     -70.21920000
C      -45.79190000     -31.30500000     -69.00150000
S      -41.97390000     -30.39770000     -70.58420000
S      -44.37470000     -30.40620000     -68.46680000
H      -46.72770000     -31.46560000     -68.43060000
