40
Properties=species:S:1:pos:R:3 #=T CELL(abcABC):=T 1.889726e+02=T 90.00000=T Traj:=T positionsangstrom=T Step:=T 0=T Bead:=T pbc="F F F"
C      -42.49570000     -31.19010000     -72.09100000
C      -42.55320000     -32.54970000     -72.54810000
C      -43.22060000     -32.89010000     -73.76740000
C      -43.92880000     -31.88410000     -74.39150000
C      -43.94940000     -30.53020000     -73.91940000
C      -43.24100000     -30.21400000     -72.74940000
H      -41.96350000     -30.87230000     -71.19960000
H      -43.30420000     -33.91430000     -74.01450000
H      -44.55490000     -29.75320000     -74.46300000
H      -43.36150000     -29.25670000     -72.29030000
C      -44.86760000     -32.26070000     -75.45890000
H      -44.33810000     -32.58250000     -76.34690000
H      -45.49390000     -31.52640000     -75.89930000
C      -41.71500000     -33.67180000     -71.91310000
H      -40.82650000     -33.85120000     -72.47300000
H      -41.39560000     -33.47320000     -70.92180000
S      -45.99960000     -33.64270000     -74.91610000
S      -42.63690000     -35.33200000     -71.77310000
C      -46.76730000     -32.99000000     -73.38830000
H      -46.62650000     -31.90010000     -73.31930000
H      -47.80990000     -33.27790000     -73.45500000
C      -43.76370000     -34.82270000     -70.37040000
H      -44.28790000     -33.82630000     -70.68610000
H      -43.02410000     -34.82660000     -69.57330000
C      -44.91980000     -35.89910000     -69.98430000
H      -45.36140000     -36.22940000     -70.96940000
H      -44.61280000     -36.72260000     -69.43340000
C      -46.22200000     -33.64990000     -72.06190000
H      -45.07360000     -33.51540000     -72.00020000
H      -46.40420000     -34.75760000     -71.98460000
C      -46.82570000     -33.19540000     -70.72540000
C      -47.63960000     -32.13190000     -70.57680000
C      -46.76980000     -34.08080000     -69.55790000
H      -47.87490000     -31.44390000     -71.37650000
C      -47.54960000     -33.58400000     -68.54500000
C      -46.03710000     -35.24930000     -69.15780000
C      -46.20720000     -35.49860000     -67.82900000
S      -48.23620000     -31.98880000     -68.91350000
S      -47.34410000     -34.36710000     -67.02670000
H      -45.84360000     -36.29900000     -67.24960000
