40
Properties=species:S:1:pos:R:3 #=T CELL(abcABC):=T 1.889726e+02=T 90.00000=T Traj:=T positionsangstrom=T Step:=T 0=T Bead:=T pbc="F F F"
C      -48.81040000     -35.48250000     -73.39760000
C      -48.19100000     -35.40690000     -72.07950000
C      -46.87950000     -35.80410000     -71.86530000
C      -46.04430000     -36.09390000     -72.97350000
C      -46.51450000     -36.00450000     -74.25650000
C      -47.89310000     -35.68350000     -74.45830000
H      -49.72120000     -35.02620000     -73.64810000
H      -46.35840000     -35.84900000     -70.97190000
H      -45.84030000     -36.17380000     -75.18680000
H      -48.19000000     -35.61740000     -75.52270000
C      -44.62700000     -36.64600000     -72.67690000
H      -44.22480000     -37.11920000     -73.62540000
H      -44.64850000     -37.36980000     -71.91400000
C      -49.01730000     -35.19450000     -70.86580000
H      -50.10990000     -35.39870000     -70.87910000
H      -48.60300000     -35.69410000     -69.97210000
S      -43.40970000     -35.37800000     -72.07090000
S      -49.11200000     -33.36870000     -70.45960000
C      -43.49670000     -34.13540000     -73.40190000
H      -42.48680000     -34.04340000     -73.69260000
H      -44.02860000     -34.47730000     -74.27160000
C      -47.62500000     -32.82940000     -69.55060000
H      -47.40920000     -33.44950000     -68.68060000
H      -47.89740000     -31.85010000     -69.22380000
C      -46.47750000     -32.80330000     -70.47030000
H      -45.98390000     -33.75360000     -70.57730000
H      -46.74410000     -32.49580000     -71.47140000
C      -44.24830000     -32.82170000     -73.05040000
H      -45.27830000     -32.91900000     -72.68950000
H      -44.26350000     -32.18420000     -73.98990000
C      -43.50000000     -32.03920000     -71.94460000
C      -42.16930000     -31.57490000     -72.04780000
C      -44.05460000     -31.63970000     -70.67360000
H      -41.60710000     -31.66870000     -72.96930000
C      -43.14850000     -30.92850000     -69.87740000
C      -45.30940000     -31.92230000     -70.00190000
C      -45.30990000     -31.43950000     -68.74330000
S      -41.52810000     -30.79960000     -70.58950000
S      -43.82230000     -30.64860000     -68.28380000
H      -46.11920000     -31.45370000     -68.04240000
