40
Properties=species:S:1:pos:R:3 #=T CELL(abcABC):=T 1.889726e+02=T 90.00000=T Traj:=T positionsangstrom=T Step:=T 0=T Bead:=T pbc="F F F"
C      -42.24850000     -31.37110000     -72.10680000
C      -42.44820000     -32.68870000     -72.57370000
C      -43.31250000     -33.00220000     -73.61870000
C      -43.83950000     -31.87630000     -74.29990000
C      -43.67900000     -30.53660000     -73.86570000
C      -42.88420000     -30.32330000     -72.74230000
H      -41.58790000     -31.20290000     -71.23160000
H      -43.55440000     -34.00330000     -73.83760000
H      -43.98830000     -29.62850000     -74.40820000
H      -42.85460000     -29.31880000     -72.28580000
C      -44.82930000     -32.21630000     -75.38680000
H      -44.24020000     -32.63350000     -76.24580000
H      -45.41820000     -31.30860000     -75.59220000
C      -41.64300000     -33.81350000     -71.90420000
H      -40.82610000     -34.18210000     -72.55170000
H      -41.07180000     -33.37530000     -70.98840000
S      -46.11840000     -33.50310000     -74.91420000
S      -42.61200000     -35.31950000     -71.47080000
C      -46.88070000     -32.67190000     -73.32490000
H      -46.38660000     -31.72390000     -73.15970000
H      -47.92090000     -32.40780000     -73.55810000
C      -43.71860000     -34.81650000     -70.11770000
H      -43.96660000     -33.67310000     -70.01760000
H      -43.26890000     -34.94140000     -69.20840000
C      -44.90250000     -35.67450000     -70.22450000
H      -45.17550000     -35.69930000     -71.27800000
H      -44.72200000     -36.71970000     -69.99380000
C      -46.57220000     -33.67220000     -72.18920000
H      -45.58530000     -33.97240000     -72.26550000
H      -47.14970000     -34.55850000     -72.43710000
C      -46.96410000     -33.18740000     -70.84680000
C      -47.85760000     -32.14930000     -70.66920000
C      -46.77380000     -33.96650000     -69.63460000
H      -48.23880000     -31.45060000     -71.41990000
C      -47.46230000     -33.49290000     -68.49220000
C      -46.00360000     -35.14400000     -69.38170000
C      -46.22310000     -35.63320000     -68.10820000
S      -48.31620000     -31.97650000     -68.93770000
S      -47.34840000     -34.57680000     -67.12320000
H      -45.66320000     -36.45640000     -67.63170000
