40
Properties=species:S:1:pos:R:3 #=T CELL(abcABC):=T 1.889726e+02=T 90.00000=T Traj:=T positionsangstrom=T Step:=T 0=T Bead:=T pbc="F F F"
C      -48.81380000     -34.07960000     -72.61950000
C      -48.61560000     -33.01500000     -71.73440000
C      -47.88610000     -31.92960000     -72.31990000
C      -47.47390000     -31.89370000     -73.65990000
C      -47.66690000     -33.03550000     -74.45010000
C      -48.34840000     -34.11990000     -73.90020000
H      -49.55940000     -34.82300000     -72.27530000
H      -47.66670000     -30.94110000     -71.81680000
H      -47.22030000     -32.90640000     -75.41500000
H      -48.53910000     -35.05030000     -74.52200000
C      -46.66040000     -30.76390000     -74.14570000
H      -47.23410000     -29.87750000     -73.97390000
H      -46.43840000     -30.90760000     -75.22670000
C      -49.29240000     -33.02460000     -70.42410000
H      -50.18580000     -32.41500000     -70.50290000
H      -49.63640000     -34.12670000     -70.31670000
S      -45.06360000     -30.41610000     -73.39320000
S      -48.39610000     -32.59490000     -68.92680000
C      -44.36060000     -32.04330000     -72.84510000
H      -45.22790000     -32.74070000     -72.51150000
H      -43.89790000     -32.58730000     -73.72790000
C      -46.84890000     -33.61590000     -69.16110000
H      -47.00520000     -34.21080000     -70.07160000
H      -46.81520000     -34.30890000     -68.35430000
C      -45.47790000     -33.11870000     -69.30420000
H      -45.44690000     -32.42490000     -70.10000000
H      -45.15220000     -32.62100000     -68.37930000
C      -43.39010000     -31.87770000     -71.77630000
H      -43.80630000     -31.53610000     -70.85060000
H      -42.65020000     -31.19520000     -72.10790000
C      -42.71950000     -33.18990000     -71.38220000
C      -41.53040000     -33.65160000     -71.93460000
C      -43.31250000     -34.17300000     -70.44790000
H      -40.86120000     -33.13470000     -72.63810000
C      -42.51520000     -35.32980000     -70.40010000
C      -44.40790000     -34.20560000     -69.48170000
C      -44.36920000     -35.33520000     -68.67410000
S      -41.13560000     -35.26960000     -71.45100000
S      -43.04150000     -36.46700000     -69.21440000
H      -45.20520000     -35.62580000     -68.00280000
