40
Properties=species:S:1:pos:R:3 #=T CELL(abcABC):=T 1.889726e+02=T 90.00000=T Traj:=T positionsangstrom=T Step:=T 0=T Bead:=T pbc="F F F"
C      -48.13120000     -34.58750000     -72.11170000
C      -48.44910000     -33.22380000     -71.83450000
C      -47.86530000     -32.28260000     -72.64640000
C      -47.16810000     -32.61550000     -73.78080000
C      -46.75020000     -33.98650000     -73.95030000
C      -47.24490000     -34.97080000     -73.09320000
H      -48.64410000     -35.32920000     -71.53660000
H      -47.98170000     -31.20230000     -72.45320000
H      -46.03300000     -34.20440000     -74.75750000
H      -46.96720000     -35.98460000     -73.21230000
C      -46.74720000     -31.63280000     -74.81820000
H      -47.53010000     -30.88260000     -75.02700000
H      -46.34940000     -32.15560000     -75.70070000
C      -49.26620000     -32.89440000     -70.61270000
H      -49.98590000     -32.12460000     -70.78170000
H      -49.74670000     -33.80200000     -70.25990000
S      -45.26730000     -30.64140000     -74.11840000
S      -48.32640000     -32.25360000     -69.09090000
C      -44.13940000     -32.03560000     -73.53210000
H      -44.71200000     -33.01070000     -73.74410000
H      -43.32030000     -32.14180000     -74.20050000
C      -47.08660000     -33.56510000     -68.84680000
H      -47.27840000     -34.40390000     -69.46730000
H      -46.87010000     -33.79830000     -67.78400000
C      -45.75430000     -32.99320000     -69.40500000
H      -46.02700000     -32.73290000     -70.39510000
H      -45.52030000     -32.10370000     -68.81160000
C      -43.79540000     -31.91470000     -72.08470000
H      -44.72370000     -31.74120000     -71.49660000
H      -43.04690000     -31.11040000     -71.95240000
C      -43.03410000     -33.07960000     -71.49830000
C      -41.74800000     -33.43260000     -71.83490000
C      -43.49920000     -33.89560000     -70.40140000
H      -41.19670000     -33.04650000     -72.74450000
C      -42.64570000     -34.88640000     -69.99210000
C      -44.66870000     -33.97910000     -69.55110000
C      -44.78240000     -35.05280000     -68.72660000
S      -41.16050000     -34.80580000     -70.92340000
S      -43.25690000     -35.94350000     -68.77680000
H      -45.59740000     -35.46400000     -68.16880000
