40
Properties=species:S:1:pos:R:3 #=T CELL(abcABC):=T 1.889726e+02=T 90.00000=T Traj:=T positionsangstrom=T Step:=T 0=T Bead:=T pbc="F F F"
C      -48.21260000     -34.55980000     -72.16690000
C      -48.51150000     -33.24450000     -71.83580000
C      -48.05910000     -32.21610000     -72.60180000
C      -47.20290000     -32.51930000     -73.71870000
C      -46.79770000     -33.79870000     -73.92440000
C      -47.28290000     -34.90870000     -73.15950000
H      -48.75690000     -35.40790000     -71.59710000
H      -48.33850000     -31.22580000     -72.28550000
H      -46.16280000     -33.95060000     -74.75280000
H      -47.00210000     -35.94180000     -73.38200000
C      -46.68260000     -31.45250000     -74.61960000
H      -47.31250000     -30.58360000     -74.67140000
H      -46.75720000     -31.80660000     -75.68680000
C      -49.41540000     -32.98120000     -70.63170000
H      -50.25270000     -32.32300000     -70.78440000
H      -49.86000000     -33.84950000     -70.24630000
S      -45.07130000     -30.88380000     -74.19600000
S      -48.43010000     -32.20970000     -69.24520000
C      -44.24540000     -32.41440000     -73.46960000
H      -44.93180000     -33.21620000     -73.41260000
H      -43.43970000     -32.86430000     -74.14300000
C      -47.04330000     -33.26640000     -68.71680000
H      -47.48180000     -34.31420000     -68.59760000
H      -46.72270000     -32.87100000     -67.76130000
C      -45.96610000     -33.20550000     -69.79870000
H      -46.48170000     -33.57170000     -70.71070000
H      -45.76790000     -32.15790000     -70.10300000
C      -43.72770000     -31.89740000     -72.13870000
H      -44.44120000     -31.48300000     -71.44550000
H      -43.06900000     -31.03090000     -72.33300000
C      -43.04140000     -33.05300000     -71.46560000
C      -41.73630000     -33.39880000     -71.81870000
C      -43.53230000     -33.86160000     -70.35000000
H      -40.99010000     -32.98530000     -72.47250000
C      -42.59850000     -34.88160000     -70.02770000
C      -44.72410000     -34.01330000     -69.51900000
C      -44.67310000     -35.05150000     -68.59580000
S      -41.12440000     -34.83430000     -70.94950000
S      -43.08210000     -35.84320000     -68.59070000
H      -45.33970000     -35.25290000     -67.74630000
