40
Properties=species:S:1:pos:R:3 #=T CELL(abcABC):=T 1.889726e+02=T 90.00000=T Traj:=T positionsangstrom=T Step:=T 0=T Bead:=T pbc="F F F"
C      -45.52750000     -35.83610000     -74.56450000
C      -44.62020000     -34.73100000     -74.51300000
C      -45.14050000     -33.42030000     -74.41870000
C      -46.51190000     -33.19010000     -74.36930000
C      -47.43120000     -34.24290000     -74.49980000
C      -46.91940000     -35.55650000     -74.55670000
H      -45.13990000     -36.85280000     -74.68050000
H      -44.41330000     -32.53910000     -74.46420000
H      -48.49230000     -34.07000000     -74.51740000
H      -47.59250000     -36.39920000     -74.64770000
C      -46.93240000     -31.72100000     -74.32400000
H      -47.40070000     -31.51770000     -75.24670000
H      -46.07570000     -31.01170000     -74.23980000
C      -43.16770000     -34.94600000     -74.55200000
H      -42.89350000     -35.91270000     -74.10060000
H      -42.74390000     -34.89060000     -75.57830000
S      -48.09700000     -31.34650000     -72.93470000
S      -42.21100000     -33.62060000     -73.45880000
C      -47.25070000     -32.17900000     -71.49870000
H      -47.98030000     -32.62480000     -70.79480000
H      -46.65790000     -33.07630000     -71.88530000
C      -42.56870000     -34.20680000     -71.75780000
H      -41.82500000     -33.68720000     -71.14710000
H      -42.43060000     -35.31230000     -71.74610000
C      -43.98540000     -33.83510000     -71.34240000
H      -44.09560000     -32.78810000     -71.70570000
H      -44.71120000     -34.42640000     -71.96020000
C      -46.33110000     -31.31260000     -70.62550000
H      -46.61620000     -30.22140000     -70.49210000
H      -45.34590000     -31.15320000     -71.14150000
C      -46.04090000     -31.95170000     -69.30390000
C      -46.61140000     -31.50670000     -68.13560000
C      -45.15960000     -33.13070000     -69.08370000
H      -47.13970000     -30.50980000     -68.08160000
C      -45.18030000     -33.48470000     -67.70110000
C      -44.26050000     -33.92670000     -69.84870000
C      -43.59230000     -34.84660000     -68.99970000
S      -46.19180000     -32.44570000     -66.74270000
S      -44.12390000     -34.88020000     -67.34410000
H      -42.92300000     -35.53210000     -69.30640000
