40
Properties=species:S:1:pos:R:3 #=T CELL(abcABC):=T 1.889726e+02=T 90.00000=T Traj:=T positionsangstrom=T Step:=T 0=T Bead:=T pbc="F F F"
C      -45.20810000     -35.95420000     -74.23620000
C      -44.32340000     -34.82980000     -74.50180000
C      -44.90590000     -33.51140000     -74.47850000
C      -46.31520000     -33.38290000     -74.36420000
C      -47.13490000     -34.51840000     -74.15800000
C      -46.57630000     -35.79550000     -74.03910000
H      -44.68140000     -36.86460000     -74.03250000
H      -44.27630000     -32.64240000     -74.69410000
H      -48.24360000     -34.42180000     -74.16330000
H      -47.30330000     -36.66110000     -73.96770000
C      -47.01720000     -32.09890000     -74.56220000
H      -47.64060000     -31.96310000     -75.40430000
H      -46.31240000     -31.21190000     -74.68420000
C      -42.83520000     -35.05180000     -74.50330000
H      -42.60540000     -36.12380000     -74.31270000
H      -42.35000000     -34.84670000     -75.52240000
S      -48.10750000     -31.56720000     -73.14630000
S      -42.00400000     -33.91860000     -73.27870000
C      -47.42630000     -32.23300000     -71.56910000
H      -48.22730000     -32.57870000     -70.89360000
H      -46.86700000     -33.19940000     -71.78290000
C      -42.81720000     -34.46650000     -71.66250000
H      -41.97600000     -34.28330000     -70.96680000
H      -43.00180000     -35.55350000     -71.57450000
C      -44.00970000     -33.55050000     -71.23780000
H      -43.79440000     -32.56070000     -71.48690000
H      -44.83860000     -33.85330000     -71.87540000
C      -46.48970000     -31.31040000     -70.88300000
H      -46.89640000     -30.30890000     -70.64600000
H      -45.62010000     -31.07580000     -71.48550000
C      -46.15740000     -31.93330000     -69.54470000
C      -46.94180000     -31.46750000     -68.52950000
C      -45.23910000     -32.92110000     -69.09670000
H      -47.74230000     -30.74390000     -68.49020000
C      -45.38680000     -33.25730000     -67.77990000
C      -44.32220000     -33.72310000     -69.82180000
C      -43.65390000     -34.52500000     -68.90090000
S      -46.56490000     -32.28180000     -66.92230000
S      -44.10340000     -34.28570000     -67.23660000
H      -42.75700000     -35.22660000     -69.15170000
