40
Properties=species:S:1:pos:R:3 #=T CELL(abcABC):=T 1.889726e+02=T 90.00000=T Traj:=T positionsangstrom=T Step:=T 0=T Bead:=T pbc="F F F"
C      -47.98040000     -34.50140000     -71.98890000
C      -48.48110000     -33.23640000     -71.80480000
C      -48.12710000     -32.28080000     -72.75670000
C      -47.37020000     -32.56100000     -73.87240000
C      -47.03530000     -33.94060000     -74.13990000
C      -47.26790000     -34.87120000     -73.13640000
H      -48.03220000     -35.21490000     -71.11310000
H      -48.50070000     -31.25560000     -72.52590000
H      -46.52810000     -34.12750000     -75.01890000
H      -46.92880000     -35.85320000     -73.17370000
C      -46.81490000     -31.53060000     -74.75530000
H      -47.46650000     -30.63220000     -74.77830000
H      -46.66540000     -31.95540000     -75.73350000
C      -49.38270000     -32.91310000     -70.58520000
H      -50.07450000     -32.09750000     -70.93770000
H      -49.98130000     -33.83220000     -70.33120000
S      -45.09110000     -30.74330000     -74.17390000
S      -48.61520000     -32.18870000     -69.06100000
C      -44.05780000     -31.99800000     -73.49120000
H      -44.63670000     -32.88500000     -73.60130000
H      -43.04600000     -32.03980000     -73.97330000
C      -47.08490000     -33.22980000     -68.79960000
H      -47.45980000     -34.19950000     -68.52890000
H      -46.66820000     -32.89720000     -67.85180000
C      -45.92250000     -33.16050000     -69.75810000
H      -46.09690000     -33.37940000     -70.85680000
H      -45.61150000     -32.10330000     -69.77150000
C      -43.74420000     -31.89480000     -71.91710000
H      -44.62210000     -31.69270000     -71.33890000
H      -43.03020000     -31.06630000     -71.81410000
C      -42.98970000     -33.05780000     -71.42160000
C      -41.74690000     -33.48170000     -71.84890000
C      -43.44300000     -33.90960000     -70.28960000
H      -41.05120000     -32.88450000     -72.51420000
C      -42.57880000     -34.98240000     -70.06500000
C      -44.68400000     -34.04890000     -69.45450000
C      -44.56660000     -35.12160000     -68.59580000
S      -41.07730000     -34.86000000     -70.96810000
S      -43.03570000     -36.01780000     -68.74500000
H      -45.24740000     -35.52970000     -67.88190000
