40
Properties=species:S:1:pos:R:3 #=T CELL(abcABC):=T 1.889726e+02=T 90.00000=T Traj:=T positionsangstrom=T Step:=T 0=T Bead:=T pbc="F F F"
C      -44.91480000     -35.99050000     -73.80670000
C      -44.07420000     -34.95730000     -74.07720000
C      -44.61790000     -33.68990000     -74.39710000
C      -45.99920000     -33.49720000     -74.40310000
C      -46.90570000     -34.60620000     -74.15880000
C      -46.28570000     -35.84830000     -73.88150000
H      -44.55530000     -37.02510000     -73.57470000
H      -43.95310000     -32.83440000     -74.61030000
H      -47.92970000     -34.56160000     -74.21180000
H      -46.94540000     -36.74940000     -73.84460000
C      -46.59540000     -32.09240000     -74.70010000
H      -46.86670000     -32.21300000     -75.78530000
H      -45.72280000     -31.40250000     -74.63180000
C      -42.61160000     -35.11340000     -74.10450000
H      -42.33830000     -36.15200000     -73.77910000
H      -42.28860000     -35.04740000     -75.18040000
S      -48.11080000     -31.70070000     -73.65400000
S      -41.69990000     -33.80810000     -73.12340000
C      -47.75010000     -32.10900000     -71.88250000
H      -48.70090000     -31.78190000     -71.42690000
H      -47.58310000     -33.18290000     -71.87890000
C      -42.38380000     -34.07180000     -71.34760000
H      -41.70560000     -33.48490000     -70.72460000
H      -42.30860000     -35.13980000     -71.22510000
C      -43.78980000     -33.52760000     -71.07420000
H      -43.74050000     -32.48650000     -71.25420000
H      -44.61390000     -33.80160000     -71.81680000
C      -46.63260000     -31.44310000     -71.15040000
H      -46.85090000     -30.33680000     -71.06740000
H      -45.67200000     -31.46320000     -71.75190000
C      -46.41360000     -31.94980000     -69.69170000
C      -47.27510000     -31.47430000     -68.69560000
C      -45.42490000     -32.81550000     -69.19700000
H      -47.95020000     -30.61490000     -68.78040000
C      -45.61270000     -33.13750000     -67.80570000
C      -44.36040000     -33.62600000     -69.69860000
C      -43.84010000     -34.48800000     -68.70670000
S      -46.90400000     -32.21670000     -67.06550000
S      -44.61400000     -34.38420000     -67.16520000
H      -43.11070000     -35.15600000     -69.08570000
