40
Properties=species:S:1:pos:R:3 #=T CELL(abcABC):=T 1.889726e+02=T 90.00000=T Traj:=T positionsangstrom=T Step:=T 0=T Bead:=T pbc="F F F"
C      -48.94020000     -34.54350000     -72.47170000
C      -48.83440000     -33.25930000     -71.94340000
C      -48.05980000     -32.36770000     -72.60640000
C      -47.37860000     -32.67920000     -73.81680000
C      -47.43940000     -34.02850000     -74.21180000
C      -48.33730000     -34.94250000     -73.65010000
H      -49.51140000     -35.18170000     -71.89120000
H      -47.96230000     -31.30960000     -72.20830000
H      -47.04060000     -34.32570000     -75.28410000
H      -48.56980000     -35.98550000     -73.94600000
C      -46.65380000     -31.63460000     -74.60920000
H      -47.30290000     -30.71680000     -74.60230000
H      -46.54100000     -31.82490000     -75.60700000
C      -49.44510000     -33.04640000     -70.55060000
H      -50.36910000     -32.44530000     -70.51040000
H      -49.69590000     -33.99530000     -70.12580000
S      -44.94410000     -31.04900000     -74.15480000
S      -48.44060000     -32.08330000     -69.29140000
C      -44.18750000     -32.54100000     -73.36560000
H      -45.13440000     -33.15490000     -73.14500000
H      -43.66480000     -33.20600000     -74.02900000
C      -47.04210000     -33.20310000     -69.08430000
H      -47.30730000     -34.17340000     -69.47900000
H      -46.93970000     -33.42630000     -68.02140000
C      -45.68590000     -32.84200000     -69.72170000
H      -45.81640000     -32.79560000     -70.80170000
H      -45.50160000     -31.79040000     -69.50740000
C      -43.35110000     -32.02010000     -72.15270000
H      -44.02320000     -31.47460000     -71.43610000
H      -42.63550000     -31.27280000     -72.49100000
C      -42.69720000     -33.19220000     -71.41840000
C      -41.50090000     -33.65350000     -71.81420000
C      -43.24250000     -33.81010000     -70.28240000
H      -40.95910000     -33.43580000     -72.65000000
C      -42.39820000     -34.73870000     -69.78190000
C      -44.53890000     -33.75240000     -69.50070000
C      -44.56960000     -34.70670000     -68.50740000
S      -40.84550000     -34.85220000     -70.66890000
S      -43.12110000     -35.67910000     -68.47260000
H      -45.35500000     -34.90780000     -67.83820000
