40
Properties=species:S:1:pos:R:3 #=T CELL(abcABC):=T 1.889726e+02=T 90.00000=T Traj:=T positionsangstrom=T Step:=T 0=T Bead:=T pbc="F F F"
C      -49.06870000     -34.42880000     -72.60120000
C      -48.67930000     -33.22390000     -72.04220000
C      -47.92180000     -32.34420000     -72.83470000
C      -47.41540000     -32.66690000     -74.09000000
C      -47.79670000     -33.93900000     -74.58250000
C      -48.59470000     -34.83910000     -73.86910000
H      -49.80870000     -35.06140000     -72.02890000
H      -47.81080000     -31.29140000     -72.49860000
H      -47.40640000     -34.20530000     -75.53900000
H      -48.89590000     -35.80460000     -74.20180000
C      -46.48310000     -31.87660000     -74.99280000
H      -46.96000000     -31.10060000     -75.52660000
H      -46.03300000     -32.61260000     -75.68540000
C      -49.13350000     -32.84820000     -70.67000000
H      -50.14220000     -32.35620000     -70.78540000
H      -49.25910000     -33.84010000     -70.13180000
S      -45.30600000     -31.04990000     -73.83780000
S      -48.18110000     -31.76440000     -69.57070000
C      -44.47670000     -32.52350000     -73.13400000
H      -45.18580000     -33.16410000     -72.56510000
H      -43.93280000     -33.14900000     -73.88280000
C      -46.91620000     -32.92630000     -68.86390000
H      -47.28560000     -33.97600000     -68.96430000
H      -46.79700000     -32.71770000     -67.81530000
C      -45.60110000     -32.88110000     -69.64560000
H      -45.81010000     -32.89740000     -70.68120000
H      -45.25090000     -31.85820000     -69.55920000
C      -43.32420000     -32.09030000     -72.21060000
H      -43.71730000     -31.32720000     -71.56560000
H      -42.47820000     -31.63000000     -72.78110000
C      -42.71900000     -33.24360000     -71.36020000
C      -41.49890000     -33.78890000     -71.65950000
C      -43.33780000     -33.93760000     -70.24220000
H      -40.82270000     -33.33520000     -72.38820000
C      -42.43220000     -34.87440000     -69.71790000
C      -44.42630000     -33.86720000     -69.40180000
C      -44.42380000     -34.79930000     -68.35030000
S      -40.86950000     -34.99080000     -70.46510000
S      -43.06340000     -35.81300000     -68.40350000
H      -45.17780000     -34.90400000     -67.57080000
