40
Properties=species:S:1:pos:R:3 #=T CELL(abcABC):=T 1.889726e+02=T 90.00000=T Traj:=T positionsangstrom=T Step:=T 0=T Bead:=T pbc="F F F"
C      -42.76050000     -33.90620000     -67.85720000
C      -44.11670000     -33.45240000     -67.68300000
C      -44.43820000     -32.18340000     -68.14780000
C      -43.54860000     -31.39610000     -68.84810000
C      -42.22530000     -31.86400000     -68.99890000
C      -41.79880000     -33.08910000     -68.47560000
H      -42.55820000     -34.93790000     -67.58330000
H      -45.38730000     -31.82270000     -68.02800000
H      -41.47220000     -31.19670000     -69.54070000
H      -40.74630000     -33.36460000     -68.53150000
C      -43.96280000     -30.08010000     -69.37680000
H      -43.20750000     -29.66790000     -70.06310000
H      -44.19800000     -29.29200000     -68.59730000
C      -45.25280000     -34.21140000     -67.04900000
H      -44.88260000     -35.18920000     -66.74030000
H      -45.68890000     -33.60830000     -66.26520000
S      -45.53570000     -30.13670000     -70.30410000
S      -46.59720000     -34.52990000     -68.32060000
C      -45.21470000     -31.36190000     -71.67010000
H      -44.29860000     -31.12370000     -72.25930000
H      -45.00220000     -32.31050000     -71.30340000
C      -45.77960000     -34.78600000     -69.95950000
H      -45.38750000     -35.80460000     -69.98660000
H      -44.90120000     -34.17420000     -70.15850000
C      -46.86570000     -34.51360000     -71.08340000
H      -47.69120000     -35.22780000     -70.80760000
H      -47.32260000     -33.52010000     -71.11700000
C      -46.38860000     -31.54080000     -72.71380000
H      -46.46290000     -30.57830000     -73.29930000
H      -47.31630000     -31.55330000     -72.22250000
C      -46.17540000     -32.66670000     -73.75900000
C      -45.93430000     -32.31900000     -75.07490000
C      -46.26180000     -34.12560000     -73.57110000
H      -45.57490000     -31.34760000     -75.51380000
C      -45.91950000     -34.85730000     -74.72340000
C      -46.53380000     -34.97570000     -72.48050000
C      -46.46550000     -36.33420000     -72.77910000
S      -45.59750000     -33.74970000     -76.09210000
S      -45.91410000     -36.59330000     -74.50090000
H      -46.71270000     -37.18300000     -72.21860000
