40
Properties=species:S:1:pos:R:3 #=T CELL(abcABC):=T 1.889726e+02=T 90.00000=T Traj:=T positionsangstrom=T Step:=T 0=T Bead:=T pbc="F F F"
C      -48.91500000     -34.56350000     -72.48340000
C      -48.63930000     -33.27350000     -71.95930000
C      -47.90830000     -32.40390000     -72.68430000
C      -47.38140000     -32.69060000     -73.95190000
C      -47.84410000     -33.86890000     -74.50620000
C      -48.55920000     -34.85040000     -73.80900000
H      -49.51110000     -35.24300000     -71.96100000
H      -47.70270000     -31.44840000     -72.00460000
H      -47.41330000     -34.08680000     -75.54840000
H      -48.81650000     -35.79530000     -74.27930000
C      -46.67780000     -31.69270000     -74.77330000
H      -47.31270000     -30.80500000     -75.01130000
H      -46.45640000     -32.17970000     -75.78680000
C      -49.37030000     -32.81410000     -70.76440000
H      -50.00080000     -32.01960000     -71.10550000
H      -49.99760000     -33.64880000     -70.37240000
S      -45.16360000     -31.10120000     -73.96610000
S      -48.25580000     -31.95900000     -69.51260000
C      -44.43040000     -32.52880000     -73.04940000
H      -45.20140000     -33.03780000     -72.55390000
H      -43.97950000     -33.25220000     -73.74630000
C      -46.87670000     -33.22990000     -69.06030000
H      -47.22960000     -34.22330000     -69.36650000
H      -46.71980000     -33.10830000     -67.98130000
C      -45.59690000     -32.85190000     -69.79920000
H      -45.82160000     -32.89130000     -70.91080000
H      -45.21550000     -31.89460000     -69.45950000
C      -43.33120000     -31.97830000     -72.10110000
H      -43.60460000     -31.18530000     -71.39050000
H      -42.59840000     -31.58400000     -72.79780000
C      -42.64550000     -33.10160000     -71.30870000
C      -41.43340000     -33.59340000     -71.61770000
C      -43.19980000     -33.91540000     -70.19620000
H      -40.76000000     -33.14980000     -72.25210000
C      -42.35330000     -34.88440000     -69.70950000
C      -44.52170000     -33.83640000     -69.46770000
C      -44.59530000     -34.79360000     -68.46530000
S      -40.88090000     -35.01100000     -70.68730000
S      -43.07990000     -35.66110000     -68.31980000
H      -45.34980000     -34.76190000     -67.69650000
