40
Properties=species:S:1:pos:R:3 #=T CELL(abcABC):=T 1.889726e+02=T 90.00000=T Traj:=T positionsangstrom=T Step:=T 0=T Bead:=T pbc="F F F"
C      -49.18520000     -34.40570000     -72.63200000
C      -48.68890000     -33.25860000     -72.09350000
C      -47.83540000     -32.39960000     -72.83650000
C      -47.42190000     -32.76360000     -74.11810000
C      -47.80910000     -34.00280000     -74.58760000
C      -48.65490000     -34.82780000     -73.82520000
H      -49.78340000     -35.16560000     -71.93240000
H      -47.46020000     -31.52730000     -72.40950000
H      -47.61660000     -34.21810000     -75.55230000
H      -48.98020000     -35.69810000     -74.34530000
C      -46.43090000     -31.83390000     -74.84580000
H      -46.86180000     -30.89770000     -75.32160000
H      -46.04750000     -32.36440000     -75.70290000
C      -49.15190000     -32.86190000     -70.70450000
H      -50.09210000     -32.32690000     -70.70680000
H      -49.33200000     -33.61460000     -70.02180000
S      -45.09610000     -31.02780000     -73.84770000
S      -48.11340000     -31.69610000     -69.59460000
C      -44.31780000     -32.52750000     -73.12910000
H      -45.16400000     -33.15370000     -72.72380000
H      -43.86610000     -33.07230000     -73.91080000
C      -46.75010000     -32.77750000     -68.91260000
H      -47.23860000     -33.68250000     -68.61820000
H      -46.44950000     -32.19600000     -68.00440000
C      -45.64350000     -32.91480000     -69.91150000
H      -46.09830000     -33.08640000     -70.93610000
H      -45.09300000     -31.91330000     -69.95630000
C      -43.42970000     -32.06460000     -72.03480000
H      -43.97350000     -31.51070000     -71.31740000
H      -42.65950000     -31.38610000     -72.44910000
C      -42.68860000     -33.20420000     -71.29570000
C      -41.45320000     -33.72240000     -71.56290000
C      -43.32250000     -33.99590000     -70.21540000
H      -40.91870000     -33.44860000     -72.51580000
C      -42.42040000     -34.92490000     -69.62210000
C      -44.57260000     -33.94720000     -69.48780000
C      -44.72240000     -34.89040000     -68.47250000
S      -40.92830000     -35.06290000     -70.52640000
S      -43.17440000     -35.77670000     -68.29760000
H      -45.59930000     -35.03980000     -67.86130000
