40
Properties=species:S:1:pos:R:3 #=T CELL(abcABC):=T 1.889726e+02=T 90.00000=T Traj:=T positionsangstrom=T Step:=T 0=T Bead:=T pbc="F F F"
C      -44.08490000     -36.46330000     -74.30270000
C      -43.35170000     -35.33040000     -73.99230000
C      -43.90700000     -34.00610000     -74.27000000
C      -45.26580000     -33.80350000     -74.54930000
C      -46.00810000     -35.01350000     -74.92370000
C      -45.42080000     -36.28820000     -74.82480000
H      -43.57810000     -37.49290000     -74.20880000
H      -43.26540000     -33.15860000     -74.09740000
H      -47.01030000     -34.95940000     -75.28020000
H      -45.91470000     -37.16220000     -75.23400000
C      -45.85790000     -32.43100000     -74.79560000
H      -46.04380000     -32.32220000     -75.90760000
H      -45.25760000     -31.53410000     -74.45870000
C      -42.01060000     -35.47110000     -73.25920000
H      -42.10080000     -36.23740000     -72.45380000
H      -41.20780000     -35.62840000     -73.98770000
S      -47.58260000     -32.18240000     -74.05450000
S      -41.55280000     -33.92790000     -72.24100000
C      -47.55270000     -32.57640000     -72.20990000
H      -48.54560000     -32.84720000     -71.88030000
H      -46.97280000     -33.54850000     -72.09930000
C      -42.75100000     -33.93790000     -70.83780000
H      -42.27950000     -33.81200000     -69.89640000
H      -43.11190000     -35.00240000     -70.89080000
C      -44.02200000     -33.11770000     -70.76680000
H      -43.87090000     -32.11440000     -71.12120000
H      -44.64760000     -33.44770000     -71.59950000
C      -46.98590000     -31.43820000     -71.37160000
H      -47.52250000     -30.47450000     -71.57870000
H      -45.91080000     -31.25970000     -71.74040000
C      -46.99570000     -31.76100000     -69.92300000
C      -47.91730000     -31.25060000     -69.02040000
C      -46.07180000     -32.67500000     -69.17120000
H      -48.63370000     -30.52900000     -69.24040000
C      -46.38080000     -32.82070000     -67.86640000
C      -44.78280000     -33.24370000     -69.47130000
C      -44.25070000     -33.86400000     -68.39370000
S      -47.70560000     -31.79170000     -67.38920000
S      -45.30180000     -33.73430000     -66.90680000
H      -43.34680000     -34.40220000     -68.25520000
