40
Properties=species:S:1:pos:R:3 #=T CELL(abcABC):=T 1.889726e+02=T 90.00000=T Traj:=T positionsangstrom=T Step:=T 0=T Bead:=T pbc="F F F"
C      -48.93020000     -34.25210000     -72.32440000
C      -48.53270000     -32.88580000     -72.08640000
C      -47.64930000     -32.27690000     -72.97350000
C      -47.03900000     -33.04780000     -73.99050000
C      -47.29480000     -34.44310000     -74.06010000
C      -48.35680000     -34.94920000     -73.35320000
H      -49.67880000     -34.69880000     -71.69230000
H      -47.45560000     -31.18600000     -72.89430000
H      -46.72510000     -35.02190000     -74.77170000
H      -48.71780000     -35.89320000     -73.61370000
C      -46.12320000     -32.46360000     -74.98820000
H      -46.72100000     -31.90830000     -75.73580000
H      -45.61680000     -33.24340000     -75.44550000
C      -49.22550000     -32.11690000     -70.96430000
H      -49.54060000     -31.08950000     -71.22710000
H      -50.13540000     -32.68180000     -70.65510000
S      -44.99290000     -31.20380000     -74.28960000
S      -48.20970000     -31.65940000     -69.51650000
C      -44.13750000     -32.47320000     -73.17610000
H      -44.98020000     -32.99200000     -72.69400000
H      -43.64020000     -33.16890000     -73.88370000
C      -47.10530000     -33.11360000     -69.37410000
H      -47.54200000     -33.89230000     -69.91400000
H      -46.98260000     -33.39940000     -68.28810000
C      -45.72930000     -32.65200000     -69.78900000
H      -45.71740000     -32.41100000     -70.83700000
H      -45.48890000     -31.68770000     -69.28050000
C      -43.18120000     -31.98080000     -72.13610000
H      -43.64660000     -31.24170000     -71.50850000
H      -42.43730000     -31.35730000     -72.72450000
C      -42.69620000     -33.19410000     -71.28780000
C      -41.69700000     -34.04250000     -71.68340000
C      -43.35780000     -33.83040000     -70.14570000
H      -41.15600000     -34.00730000     -72.62270000
C      -42.70120000     -34.92870000     -69.60260000
C      -44.59440000     -33.59220000     -69.40880000
C      -44.68040000     -34.36040000     -68.22850000
S      -41.32400000     -35.39880000     -70.55410000
S      -43.38170000     -35.56910000     -68.13910000
H      -45.56990000     -34.48000000     -67.60520000
