40
Properties=species:S:1:pos:R:3 #=T CELL(abcABC):=T 1.889726e+02=T 90.00000=T Traj:=T positionsangstrom=T Step:=T 0=T Bead:=T pbc="F F F"
C      -48.88630000     -34.30380000     -72.28580000
C      -48.86820000     -32.91550000     -72.32220000
C      -48.06790000     -32.18250000     -73.20650000
C      -47.36150000     -32.89180000     -74.16700000
C      -47.46020000     -34.27310000     -74.14090000
C      -48.28870000     -35.01770000     -73.29120000
H      -49.47750000     -34.68850000     -71.46030000
H      -47.98760000     -31.15170000     -73.20200000
H      -47.12640000     -34.73550000     -74.98260000
H      -48.35400000     -36.17380000     -73.24960000
C      -46.44930000     -32.30270000     -75.19000000
H      -46.79940000     -31.43450000     -75.62290000
H      -46.23590000     -33.01500000     -76.04490000
C      -49.40920000     -32.12320000     -71.15220000
H      -49.92190000     -31.28150000     -71.55650000
H      -50.13740000     -32.66940000     -70.47430000
S      -44.75220000     -31.79750000     -74.52420000
S      -47.94300000     -31.53120000     -70.26900000
C      -44.21510000     -32.93890000     -73.21930000
H      -44.91950000     -33.67920000     -72.81500000
H      -43.33810000     -33.56350000     -73.50590000
C      -46.86880000     -32.97850000     -69.91720000
H      -46.57310000     -33.46520000     -70.86740000
H      -47.42940000     -33.69930000     -69.31760000
C      -45.62760000     -32.57950000     -69.08740000
H      -45.24940000     -31.61130000     -69.42820000
H      -45.92740000     -32.44650000     -68.03150000
C      -43.74600000     -32.22100000     -71.94500000
H      -44.66150000     -31.94180000     -71.44080000
H      -43.15480000     -31.31370000     -72.08390000
C      -42.89970000     -33.17060000     -71.08220000
C      -41.71260000     -33.68520000     -71.42330000
C      -43.37900000     -33.79670000     -69.86490000
H      -41.01150000     -33.51050000     -72.30320000
C      -42.63140000     -34.88970000     -69.39070000
C      -44.47870000     -33.59450000     -68.96990000
C      -44.52910000     -34.35810000     -67.85220000
S      -41.15250000     -35.08260000     -70.34850000
S      -43.31400000     -35.55660000     -67.81940000
H      -45.18110000     -34.16090000     -67.00390000
