40
Properties=species:S:1:pos:R:3 #=T CELL(abcABC):=T 1.889726e+02=T 90.00000=T Traj:=T positionsangstrom=T Step:=T 0=T Bead:=T pbc="F F F"
C      -42.75030000     -33.59790000     -67.79390000
C      -44.08050000     -33.35090000     -67.96330000
C      -44.46910000     -32.21830000     -68.61600000
C      -43.54960000     -31.20610000     -69.00980000
C      -42.19880000     -31.53200000     -68.92660000
C      -41.81400000     -32.75680000     -68.32350000
H      -42.38570000     -34.54470000     -67.38490000
H      -45.52470000     -31.92090000     -68.53590000
H      -41.37080000     -30.97500000     -69.28290000
H      -40.75870000     -32.97450000     -68.15510000
C      -44.00330000     -29.87690000     -69.50290000
H      -43.17610000     -29.34120000     -70.04550000
H      -44.28550000     -29.20860000     -68.67870000
C      -45.03110000     -34.34990000     -67.43680000
H      -44.50280000     -35.34800000     -67.49010000
H      -45.20670000     -34.10050000     -66.37760000
S      -45.45630000     -29.81590000     -70.71170000
S      -46.69160000     -34.49160000     -68.20870000
C      -45.16780000     -31.35130000     -71.74500000
H      -44.49890000     -31.08300000     -72.54710000
H      -44.76270000     -32.08260000     -71.04040000
C      -46.18150000     -34.75950000     -70.09100000
H      -45.65990000     -35.68490000     -70.02340000
H      -45.47430000     -33.96190000     -70.19400000
C      -47.35170000     -34.90780000     -71.09240000
H      -48.10700000     -35.57410000     -70.65430000
H      -47.84830000     -33.91840000     -71.22660000
C      -46.50210000     -31.82130000     -72.38810000
H      -46.94220000     -30.94390000     -72.81550000
H      -47.16290000     -32.28150000     -71.61860000
C      -46.10520000     -32.89200000     -73.45690000
C      -45.66820000     -32.46230000     -74.73650000
C      -46.26270000     -34.33570000     -73.39570000
H      -45.70830000     -31.48350000     -75.13680000
C      -45.79510000     -34.95150000     -74.57250000
C      -46.78510000     -35.31230000     -72.42440000
C      -46.61180000     -36.61490000     -72.88800000
S      -45.28150000     -33.77120000     -75.78640000
S      -45.91430000     -36.66070000     -74.49240000
H      -46.84130000     -37.51380000     -72.27370000
