40
Properties=species:S:1:pos:R:3 #=T CELL(abcABC):=T 1.889726e+02=T 90.00000=T Traj:=T positionsangstrom=T Step:=T 0=T Bead:=T pbc="F F F"
C      -43.95060000     -36.28480000     -73.56990000
C      -43.28790000     -34.98780000     -73.67410000
C      -43.98540000     -33.89470000     -74.11470000
C      -45.35690000     -34.04550000     -74.39820000
C      -46.06800000     -35.26080000     -74.12990000
C      -45.31080000     -36.41890000     -73.78540000
H      -43.35880000     -37.09500000     -73.15950000
H      -43.40690000     -32.97630000     -74.35640000
H      -47.16710000     -35.41620000     -74.33770000
H      -45.67570000     -37.43900000     -73.66770000
C      -46.00270000     -32.74790000     -74.92970000
H      -45.94200000     -32.70770000     -76.02690000
H      -45.19750000     -32.00550000     -74.57540000
C      -41.79090000     -34.86820000     -73.37210000
H      -41.42240000     -35.87740000     -73.06610000
H      -41.12010000     -34.48790000     -74.12690000
S      -47.57780000     -32.30570000     -74.20660000
S      -41.57570000     -33.76440000     -71.87250000
C      -47.23320000     -32.49380000     -72.42180000
H      -48.17800000     -32.46230000     -71.88420000
H      -46.83280000     -33.44080000     -72.14960000
C      -42.86990000     -34.48590000     -70.68240000
H      -42.49390000     -33.93690000     -69.76730000
H      -42.69620000     -35.50230000     -70.51260000
C      -44.36380000     -34.27120000     -70.84300000
H      -44.63940000     -33.55700000     -71.63950000
H      -44.96300000     -35.23220000     -71.14010000
C      -46.37410000     -31.42420000     -71.69150000
H      -46.62770000     -30.47580000     -72.13070000
H      -45.34640000     -31.60190000     -71.88570000
C      -46.59730000     -31.58280000     -70.24730000
C      -47.48060000     -30.81260000     -69.51650000
C      -45.98520000     -32.66180000     -69.45810000
H      -47.87020000     -29.87310000     -69.91450000
C      -46.46130000     -32.57400000     -68.15630000
C      -44.99810000     -33.70850000     -69.61360000
C      -44.83540000     -34.35310000     -68.41790000
S      -47.57460000     -31.21440000     -67.85630000
S      -45.73360000     -33.72980000     -67.04390000
H      -44.06360000     -35.13460000     -68.30120000
