40
Properties=species:S:1:pos:R:3 #=T CELL(abcABC):=T 1.889726e+02=T 90.00000=T Traj:=T positionsangstrom=T Step:=T 0=T Bead:=T pbc="F F F"
C      -48.39050000     -34.94410000     -69.53620000
C      -47.23340000     -35.55370000     -69.98930000
C      -47.14220000     -35.82830000     -71.38300000
C      -48.09880000     -35.34740000     -72.23020000
C      -49.08700000     -34.44880000     -71.74410000
C      -49.24630000     -34.23450000     -70.38430000
H      -48.60840000     -34.99860000     -68.48450000
H      -46.30430000     -36.39220000     -71.81290000
H      -49.74760000     -33.91190000     -72.49020000
H      -50.18210000     -33.77420000     -69.93600000
C      -47.89670000     -35.46900000     -73.78350000
H      -48.69300000     -36.04630000     -74.22200000
H      -46.94920000     -35.94670000     -73.93880000
C      -46.27870000     -36.22100000     -68.94110000
H      -46.91460000     -36.23250000     -67.99860000
H      -45.96640000     -37.19730000     -69.32440000
S      -47.82640000     -33.80560000     -74.53420000
S      -44.71120000     -35.28200000     -68.71250000
C      -46.12970000     -33.08880000     -74.26450000
H      -45.31840000     -33.57540000     -74.79950000
H      -46.13880000     -32.18780000     -74.89370000
C      -45.34900000     -33.67670000     -68.23610000
H      -44.64930000     -33.34880000     -67.48540000
H      -46.31480000     -33.86270000     -67.83410000
C      -45.44160000     -32.62060000     -69.30400000
H      -46.16250000     -32.95030000     -69.98580000
H      -45.81750000     -31.64290000     -68.92630000
C      -45.79590000     -32.75000000     -72.78940000
H      -45.94360000     -33.66930000     -72.26590000
H      -46.58110000     -32.08460000     -72.39970000
C      -44.40680000     -32.20760000     -72.62220000
C      -43.56150000     -31.82890000     -73.64330000
C      -43.67830000     -32.05120000     -71.33350000
H      -43.77240000     -31.79200000     -74.70100000
C      -42.48610000     -31.40420000     -71.47620000
C      -44.05280000     -32.17670000     -69.91470000
C      -43.03130000     -31.75940000     -69.08780000
S      -41.97260000     -31.20520000     -73.11950000
S      -41.63260000     -31.12450000     -69.97050000
H      -42.91620000     -31.86970000     -67.97820000
