40
Properties=species:S:1:pos:R:3 #=T CELL(abcABC):=T 1.889726e+02=T 90.00000=T Traj:=T positionsangstrom=T Step:=T 0=T Bead:=T pbc="F F F"
C      -48.50300000     -34.98020000     -69.56750000
C      -47.30940000     -35.58580000     -69.98970000
C      -47.11140000     -35.74980000     -71.37720000
C      -47.93020000     -35.17400000     -72.35590000
C      -49.06300000     -34.47570000     -71.90840000
C      -49.36370000     -34.42010000     -70.53690000
H      -48.81980000     -35.06150000     -68.51620000
H      -46.14350000     -36.09150000     -71.75880000
H      -49.69110000     -33.94040000     -72.54890000
H      -50.25680000     -33.95100000     -70.15080000
C      -47.67190000     -35.26460000     -73.85270000
H      -48.44180000     -35.80370000     -74.31060000
H      -46.73730000     -35.72440000     -74.12450000
C      -46.30520000     -36.26140000     -69.07720000
H      -46.83980000     -36.54540000     -68.11220000
H      -45.82060000     -37.08870000     -69.67310000
S      -47.68340000     -33.64150000     -74.77570000
S      -44.82760000     -35.23580000     -68.52690000
C      -46.03570000     -32.84780000     -74.37110000
H      -45.23280000     -33.37980000     -74.83810000
H      -46.01540000     -31.79020000     -74.70030000
C      -45.50370000     -33.55210000     -68.12330000
H      -45.13970000     -32.99760000     -67.26690000
H      -46.52280000     -33.64420000     -67.72900000
C      -45.59570000     -32.57360000     -69.37650000
H      -46.23810000     -33.02210000     -70.20540000
H      -46.04370000     -31.68530000     -69.00500000
C      -45.73480000     -32.80730000     -72.88650000
H      -45.66470000     -33.87830000     -72.50400000
H      -46.56610000     -32.32660000     -72.35640000
C      -44.37260000     -32.13430000     -72.67090000
C      -43.44900000     -31.69690000     -73.64260000
C      -43.77120000     -31.98630000     -71.36510000
H      -43.74300000     -31.41360000     -74.60640000
C      -42.38930000     -31.62100000     -71.32090000
C      -44.16010000     -32.30330000     -69.98600000
C      -43.19350000     -32.07190000     -69.00380000
S      -41.86660000     -31.16580000     -72.99710000
S      -41.69770000     -31.44830000     -69.72790000
H      -43.34010000     -32.03070000     -67.98540000
