40
Properties=species:S:1:pos:R:3 #=T CELL(abcABC):=T 1.889726e+02=T 90.00000=T Traj:=T positionsangstrom=T Step:=T 0=T Bead:=T pbc="F F F"
C      -48.34940000     -34.91830000     -69.51590000
C      -47.20700000     -35.56330000     -70.01670000
C      -47.04350000     -35.69340000     -71.39000000
C      -48.01570000     -35.19010000     -72.30050000
C      -49.11290000     -34.54210000     -71.78810000
C      -49.29960000     -34.38860000     -70.40100000
H      -48.48120000     -34.64370000     -68.41470000
H      -46.24560000     -36.34600000     -71.72300000
H      -49.89250000     -34.19120000     -72.48400000
H      -50.14060000     -33.79790000     -70.06130000
C      -47.74150000     -35.31600000     -73.76550000
H      -48.55780000     -35.79870000     -74.31880000
H      -46.83930000     -35.97270000     -74.11050000
C      -46.30020000     -36.19160000     -69.06590000
H      -46.79710000     -36.51470000     -68.21430000
H      -45.87930000     -37.14950000     -69.39860000
S      -47.73760000     -33.63190000     -74.70910000
S      -44.86800000     -35.19980000     -68.66660000
C      -46.08890000     -33.04870000     -74.26770000
H      -45.42220000     -33.72720000     -74.80770000
H      -46.04860000     -32.01250000     -74.67310000
C      -45.59310000     -33.55840000     -68.20590000
H      -45.07770000     -33.22060000     -67.23920000
H      -46.66210000     -33.68160000     -68.00060000
C      -45.42030000     -32.66320000     -69.45790000
H      -45.96470000     -33.15560000     -70.30190000
H      -46.17570000     -31.84150000     -69.32280000
C      -45.71460000     -33.02370000     -72.77150000
H      -45.47930000     -34.00980000     -72.41770000
H      -46.51920000     -32.64080000     -72.12070000
C      -44.41300000     -32.30060000     -72.52440000
C      -43.59770000     -31.86550000     -73.54330000
C      -43.70850000     -32.06900000     -71.25580000
H      -43.90850000     -31.89240000     -74.53500000
C      -42.46430000     -31.45080000     -71.40270000
C      -44.02290000     -32.19780000     -69.84800000
C      -43.01740000     -31.80380000     -69.00810000
S      -42.04190000     -31.16610000     -73.12220000
S      -41.56120000     -31.32660000     -69.87060000
H      -43.12290000     -31.77320000     -67.92570000
