40
Properties=species:S:1:pos:R:3 #=T CELL(abcABC):=T 1.889726e+02=T 90.00000=T Traj:=T positionsangstrom=T Step:=T 0=T Bead:=T pbc="F F F"
C      -48.85030000     -32.52460000     -73.01310000
C      -48.37740000     -32.99390000     -71.75760000
C      -47.92410000     -34.28880000     -71.74990000
C      -47.75920000     -35.04810000     -72.92080000
C      -48.25220000     -34.57520000     -74.15300000
C      -48.80970000     -33.30390000     -74.19640000
H      -49.25620000     -31.54080000     -73.06060000
H      -47.60630000     -34.66220000     -70.78820000
H      -48.23370000     -35.34970000     -74.99670000
H      -49.29930000     -32.91650000     -75.07260000
C      -47.01680000     -36.36450000     -72.80050000
H      -47.32190000     -36.98720000     -73.66090000
H      -47.42470000     -36.94540000     -71.96840000
C      -48.53110000     -32.20680000     -70.48700000
H      -49.58320000     -32.24310000     -70.25880000
H      -48.08830000     -32.76860000     -69.62590000
S      -45.15820000     -36.35000000     -72.66530000
S      -48.03060000     -30.35820000     -70.54800000
C      -44.87680000     -34.90420000     -73.75030000
H      -44.03400000     -35.10420000     -74.43310000
H      -45.70890000     -34.77080000     -74.37750000
C      -46.40120000     -30.54300000     -69.77190000
H      -46.54570000     -30.79960000     -68.75000000
H      -45.92130000     -29.57470000     -69.86160000
C      -45.56510000     -31.54880000     -70.54070000
H      -46.03230000     -32.54580000     -70.81250000
H      -45.40730000     -31.10790000     -71.59430000
C      -44.43910000     -33.61450000     -72.95310000
H      -45.33950000     -33.12960000     -72.57470000
H      -43.96510000     -32.92480000     -73.68910000
C      -43.41770000     -33.76580000     -71.79500000
C      -42.29640000     -34.53480000     -71.99610000
C      -43.37200000     -33.03220000     -70.56390000
H      -42.09710000     -35.18390000     -72.77960000
C      -42.24890000     -33.31340000     -69.77870000
C      -44.17520000     -32.01430000     -69.93540000
C      -43.73850000     -31.56660000     -68.69310000
S      -41.24810000     -34.57660000     -70.53190000
S      -42.21100000     -32.56440000     -68.24300000
H      -44.00340000     -30.71800000     -68.05290000
