40
Properties=species:S:1:pos:R:3 #=T CELL(abcABC):=T 1.889726e+02=T 90.00000=T Traj:=T positionsangstrom=T Step:=T 0=T Bead:=T pbc="F F F"
C      -42.69890000     -33.58580000     -68.02370000
C      -44.10640000     -33.39250000     -68.14330000
C      -44.53150000     -32.15340000     -68.59760000
C      -43.64210000     -31.10750000     -68.89680000
C      -42.27460000     -31.39710000     -68.74760000
C      -41.75910000     -32.62640000     -68.34860000
H      -42.21140000     -34.55810000     -67.69620000
H      -45.62300000     -32.12320000     -68.84160000
H      -41.61960000     -30.56430000     -69.13310000
H      -40.70770000     -32.72560000     -68.27170000
C      -44.00280000     -29.72580000     -69.45220000
H      -43.19820000     -29.24560000     -69.92850000
H      -44.31920000     -29.05220000     -68.59740000
C      -45.19020000     -34.36070000     -67.51250000
H      -44.82520000     -35.37580000     -67.49250000
H      -45.45300000     -33.98440000     -66.53130000
S      -45.34460000     -29.76870000     -70.76840000
S      -46.80320000     -34.34180000     -68.46900000
C      -45.05420000     -31.15190000     -71.94660000
H      -44.65560000     -30.81080000     -72.90650000
H      -44.23930000     -31.80510000     -71.59150000
C      -46.14260000     -34.88030000     -70.03460000
H      -45.56540000     -35.82910000     -69.93490000
H      -45.42500000     -34.12640000     -70.49340000
C      -47.33120000     -35.14330000     -71.00880000
H      -47.87630000     -35.97720000     -70.56040000
H      -48.02350000     -34.27360000     -71.06900000
C      -46.39750000     -31.89960000     -72.32010000
H      -47.17370000     -31.21470000     -72.62590000
H      -46.87440000     -32.39490000     -71.46470000
C      -46.13760000     -32.96600000     -73.39070000
C      -45.64780000     -32.51580000     -74.60650000
C      -46.27290000     -34.41600000     -73.31050000
H      -45.41780000     -31.49740000     -74.71880000
C      -45.83260000     -35.02180000     -74.47050000
C      -46.91760000     -35.40440000     -72.40040000
C      -46.78560000     -36.66750000     -72.91670000
S      -45.08060000     -33.84670000     -75.59850000
S      -45.96020000     -36.73500000     -74.43040000
H      -47.20400000     -37.47710000     -72.29840000
