40
Properties=species:S:1:pos:R:3 #=T CELL(abcABC):=T 1.889726e+02=T 90.00000=T Traj:=T positionsangstrom=T Step:=T 0=T Bead:=T pbc="F F F"
C      -49.21500000     -32.55120000     -72.91750000
C      -48.62660000     -33.03020000     -71.71510000
C      -48.00940000     -34.29060000     -71.77310000
C      -47.83760000     -34.94020000     -72.97200000
C      -48.30260000     -34.38310000     -74.12930000
C      -49.04450000     -33.17840000     -74.13110000
H      -49.72980000     -31.53020000     -72.84120000
H      -47.50110000     -34.63640000     -70.89230000
H      -48.05630000     -34.97820000     -75.00940000
H      -49.27200000     -32.75980000     -75.09630000
C      -47.15340000     -36.25480000     -73.00120000
H      -47.11640000     -36.59660000     -74.04240000
H      -47.63960000     -36.92490000     -72.30150000
C      -48.59140000     -32.31800000     -70.41480000
H      -49.57120000     -32.19910000     -69.98860000
H      -47.86060000     -32.73130000     -69.72480000
S      -45.33230000     -36.41910000     -72.60870000
S      -47.95200000     -30.47820000     -70.55600000
C      -44.73230000     -34.91690000     -73.64270000
H      -43.91290000     -35.17290000     -74.24320000
H      -45.52200000     -34.64660000     -74.34840000
C      -46.22330000     -30.62670000     -69.77560000
H      -46.34650000     -31.16790000     -68.83580000
H      -45.99150000     -29.59990000     -69.66250000
C      -45.29690000     -31.35270000     -70.71740000
H      -45.83150000     -32.27310000     -71.06580000
H      -45.06200000     -30.70740000     -71.60160000
C      -44.35950000     -33.66510000     -72.89030000
H      -45.26520000     -33.21600000     -72.51670000
H      -44.03770000     -32.95420000     -73.64220000
C      -43.32950000     -33.83230000     -71.80070000
C      -42.32910000     -34.81910000     -71.81990000
C      -43.25710000     -33.00360000     -70.59850000
H      -42.26020000     -35.53530000     -72.57000000
C      -42.21460000     -33.39670000     -69.76410000
C      -43.97270000     -31.89760000     -70.07960000
C      -43.51880000     -31.34650000     -68.93210000
S      -41.29380000     -34.73280000     -70.36460000
S      -42.11070000     -32.37690000     -68.36730000
H      -44.03450000     -30.66620000     -68.28740000
