40
Properties=species:S:1:pos:R:3 #=T CELL(abcABC):=T 1.889726e+02=T 90.00000=T Traj:=T positionsangstrom=T Step:=T 0=T Bead:=T pbc="F F F"
C      -48.21670000     -34.84270000     -69.26580000
C      -47.19700000     -35.65140000     -69.74660000
C      -47.11790000     -35.92890000     -71.11610000
C      -48.01520000     -35.39740000     -72.05170000
C      -49.06630000     -34.58660000     -71.49170000
C      -49.17880000     -34.30690000     -70.13940000
H      -48.30390000     -34.67460000     -68.20380000
H      -46.26650000     -36.60400000     -71.35090000
H      -49.75470000     -34.10080000     -72.21550000
H      -49.96230000     -33.62320000     -69.76170000
C      -47.76220000     -35.48080000     -73.52410000
H      -48.49080000     -36.20330000     -74.01840000
H      -46.76760000     -35.72050000     -73.77850000
C      -46.20270000     -36.25870000     -68.87010000
H      -46.62060000     -36.18060000     -67.83180000
H      -45.99530000     -37.29330000     -69.15420000
S      -47.87760000     -33.81780000     -74.56250000
S      -44.62060000     -35.37770000     -68.85600000
C      -46.10800000     -33.29970000     -74.31470000
H      -45.44400000     -34.16220000     -74.19070000
H      -45.88540000     -32.68080000     -75.18420000
C      -45.08180000     -33.63520000     -68.40760000
H      -44.21680000     -33.33000000     -67.80580000
H      -45.82790000     -33.76440000     -67.51620000
C      -45.46410000     -32.59220000     -69.44370000
H      -46.09590000     -33.13660000     -70.12000000
H      -45.95970000     -31.75280000     -68.90370000
C      -45.87830000     -32.57080000     -72.95340000
H      -45.97260000     -33.35950000     -72.12050000
H      -46.51180000     -31.68370000     -72.82660000
C      -44.46830000     -32.08710000     -72.69630000
C      -43.63150000     -31.69970000     -73.71420000
C      -43.87180000     -31.80740000     -71.41850000
H      -43.86300000     -31.75720000     -74.78920000
C      -42.55600000     -31.40480000     -71.56860000
C      -44.22280000     -32.02640000     -70.05550000
C      -43.20190000     -31.62550000     -69.19130000
S      -42.03900000     -31.19700000     -73.19480000
S      -41.68600000     -31.17880000     -70.03520000
H      -43.26210000     -31.42720000     -68.05730000
