40
Properties=species:S:1:pos:R:3 #=T CELL(abcABC):=T 1.889726e+02=T 90.00000=T Traj:=T positionsangstrom=T Step:=T 0=T Bead:=T pbc="F F F"
C      -48.66940000     -32.17750000     -73.25600000
C      -48.70260000     -32.73480000     -71.97420000
C      -48.21750000     -34.00360000     -71.76060000
C      -47.76220000     -34.84000000     -72.81730000
C      -47.79100000     -34.29110000     -74.12330000
C      -48.29270000     -32.97690000     -74.30480000
H      -48.88390000     -31.13370000     -73.50460000
H      -48.31340000     -34.38920000     -70.74510000
H      -47.56740000     -34.83500000     -74.99300000
H      -48.18520000     -32.47290000     -75.26260000
C      -47.19560000     -36.18410000     -72.55610000
H      -47.34290000     -36.97300000     -73.32390000
H      -47.63690000     -36.64660000     -71.68580000
C      -49.22060000     -31.96960000     -70.81890000
H      -50.29320000     -31.57810000     -71.05670000
H      -49.33060000     -32.46910000     -69.80800000
S      -45.47350000     -35.90170000     -72.05950000
S      -48.07540000     -30.52240000     -70.41780000
C      -44.48310000     -35.15250000     -73.49220000
H      -43.75550000     -35.89320000     -73.75580000
H      -45.08510000     -35.16750000     -74.33850000
C      -46.62340000     -31.35490000     -69.69790000
H      -46.81600000     -32.25000000     -69.12660000
H      -46.07810000     -30.83910000     -68.94970000
C      -45.57400000     -31.78080000     -70.77150000
H      -45.99540000     -32.50640000     -71.54340000
H      -45.38410000     -30.91410000     -71.42660000
C      -43.94080000     -33.73860000     -73.20950000
H      -44.74680000     -33.05140000     -73.12760000
H      -43.31590000     -33.39700000     -74.08340000
C      -43.09730000     -33.82970000     -72.03570000
C      -41.82200000     -34.39310000     -72.14330000
C      -43.30000000     -33.22250000     -70.71950000
H      -41.42470000     -34.92480000     -72.96170000
C      -42.23620000     -33.55480000     -69.84940000
C      -44.30480000     -32.36210000     -70.12320000
C      -43.94900000     -32.08270000     -68.81290000
S      -41.02050000     -34.45890000     -70.59900000
S      -42.44140000     -32.72020000     -68.26790000
H      -44.52460000     -31.62410000     -67.96930000
