40
Properties=species:S:1:pos:R:3 #=T CELL(abcABC):=T 1.889726e+02=T 90.00000=T Traj:=T positionsangstrom=T Step:=T 0=T Bead:=T pbc="F F F"
C      -48.87800000     -32.14250000     -73.38590000
C      -48.78720000     -32.62900000     -72.07580000
C      -48.23970000     -33.93300000     -71.86680000
C      -47.84760000     -34.70270000     -72.94310000
C      -48.02810000     -34.25590000     -74.23970000
C      -48.44740000     -32.96140000     -74.42470000
H      -49.24890000     -31.13980000     -73.57330000
H      -48.24370000     -34.51480000     -70.89980000
H      -47.65190000     -34.80210000     -75.12810000
H      -48.64680000     -32.64340000     -75.50180000
C      -47.26410000     -36.09380000     -72.69230000
H      -47.16090000     -36.74250000     -73.57160000
H      -47.82480000     -36.60940000     -71.85260000
C      -49.20200000     -31.76750000     -70.91830000
H      -50.09420000     -31.10430000     -71.01520000
H      -49.27110000     -32.48200000     -70.01720000
S      -45.56600000     -35.87880000     -71.94080000
S      -47.83350000     -30.46350000     -70.55470000
C      -44.57550000     -35.30660000     -73.36860000
H      -43.69800000     -35.89780000     -73.44780000
H      -45.09680000     -35.39060000     -74.32130000
C      -46.51260000     -31.29350000     -69.63580000
H      -46.77420000     -31.96300000     -68.82590000
H      -45.97620000     -30.39090000     -69.17120000
C      -45.56820000     -32.04720000     -70.59620000
H      -46.06700000     -32.87370000     -71.04480000
H      -45.37510000     -31.28410000     -71.38910000
C      -44.16450000     -33.82970000     -73.06170000
H      -45.06690000     -33.25570000     -72.78400000
H      -43.72310000     -33.45620000     -73.95680000
C      -43.11220000     -33.74250000     -71.97430000
C      -41.90040000     -34.39150000     -72.14240000
C      -43.25240000     -33.20290000     -70.66240000
H      -41.46750000     -34.92340000     -72.99470000
C      -42.13460000     -33.43940000     -69.85900000
C      -44.24060000     -32.49770000     -69.94100000
C      -43.86530000     -32.27010000     -68.68180000
S      -40.97060000     -34.41850000     -70.62870000
S      -42.29250000     -32.89520000     -68.22510000
H      -44.38450000     -31.60540000     -67.96000000
