40
Properties=species:S:1:pos:R:3 #=T CELL(abcABC):=T 1.889726e+02=T 90.00000=T Traj:=T positionsangstrom=T Step:=T 0=T Bead:=T pbc="F F F"
C      -48.66890000     -32.18280000     -73.23260000
C      -48.77020000     -32.75040000     -71.98530000
C      -48.26580000     -34.04350000     -71.71150000
C      -47.68680000     -34.80450000     -72.75610000
C      -47.79180000     -34.26900000     -74.04840000
C      -48.28410000     -32.96880000     -74.30190000
H      -49.07350000     -31.18020000     -73.44460000
H      -48.24540000     -34.25450000     -70.66660000
H      -47.45490000     -34.85040000     -74.92770000
H      -48.58060000     -32.63780000     -75.29350000
C      -47.06000000     -36.15410000     -72.48720000
H      -47.15350000     -36.75560000     -73.39430000
H      -47.45530000     -36.56610000     -71.57200000
C      -49.27760000     -31.86650000     -70.82790000
H      -50.21960000     -31.39680000     -71.09600000
H      -49.34260000     -32.45800000     -69.94540000
S      -45.19030000     -36.02660000     -72.15250000
S      -48.09300000     -30.49230000     -70.39700000
C      -44.65070000     -35.05480000     -73.64030000
H      -43.75070000     -35.51690000     -74.13410000
H      -45.50020000     -34.92110000     -74.39080000
C      -46.56590000     -31.32770000     -69.65790000
H      -46.97000000     -32.04750000     -68.89900000
H      -46.22820000     -30.37230000     -69.17990000
C      -45.68150000     -31.89030000     -70.73350000
H      -46.12030000     -32.78450000     -71.20920000
H      -45.55920000     -31.21540000     -71.48360000
C      -44.10250000     -33.75040000     -73.15350000
H      -44.91910000     -33.12820000     -72.79060000
H      -43.60430000     -33.24140000     -73.96430000
C      -43.14640000     -33.91280000     -72.06180000
C      -41.93160000     -34.61900000     -72.01410000
C      -43.29510000     -33.12560000     -70.82220000
H      -41.49270000     -35.13890000     -72.85480000
C      -42.25540000     -33.42750000     -69.93350000
C      -44.30420000     -32.32060000     -70.16060000
C      -43.98860000     -32.03380000     -68.84930000
S      -41.07130000     -34.48320000     -70.51930000
S      -42.40280000     -32.69230000     -68.31780000
H      -44.58210000     -31.45020000     -68.12430000
