40
Properties=species:S:1:pos:R:3 #=T CELL(abcABC):=T 1.889726e+02=T 90.00000=T Traj:=T positionsangstrom=T Step:=T 0=T Bead:=T pbc="F F F"
C      -48.91380000     -32.04010000     -73.42550000
C      -48.75150000     -32.55790000     -72.11470000
C      -48.33510000     -33.85120000     -71.89110000
C      -47.93590000     -34.67160000     -72.96840000
C      -48.10660000     -34.20770000     -74.26270000
C      -48.58130000     -32.88620000     -74.45980000
H      -49.30830000     -30.97900000     -73.50460000
H      -48.17870000     -34.12780000     -70.87970000
H      -47.77490000     -34.76110000     -75.13370000
H      -48.63080000     -32.37790000     -75.37830000
C      -47.37810000     -36.02000000     -72.69850000
H      -47.31800000     -36.40570000     -73.73920000
H      -47.99210000     -36.52000000     -71.97450000
C      -49.00270000     -31.65050000     -70.89680000
H      -49.95190000     -31.13750000     -71.08590000
H      -49.18380000     -32.22840000     -69.99320000
S      -45.68520000     -36.09480000     -72.04850000
S      -47.65540000     -30.40590000     -70.74540000
C      -44.73570000     -35.26440000     -73.39610000
H      -43.90020000     -35.87720000     -73.60410000
H      -45.35380000     -35.18700000     -74.28500000
C      -46.36940000     -31.17590000     -69.73510000
H      -46.90100000     -31.56890000     -68.82430000
H      -45.66120000     -30.40390000     -69.56210000
C      -45.64730000     -32.27340000     -70.47470000
H      -46.31220000     -33.15030000     -70.70220000
H      -45.44610000     -31.82590000     -71.41490000
C      -44.10680000     -33.88510000     -73.03950000
H      -44.91650000     -33.20180000     -72.83090000
H      -43.69710000     -33.50240000     -74.00330000
C      -43.12310000     -33.96400000     -71.84560000
C      -41.87650000     -34.51050000     -72.05110000
C      -43.27840000     -33.37750000     -70.52160000
H      -41.60650000     -35.17420000     -72.93190000
C      -42.13060000     -33.56400000     -69.69600000
C      -44.29860000     -32.68690000     -69.80570000
C      -44.01200000     -32.42440000     -68.49900000
S      -40.79680000     -34.17990000     -70.64970000
S      -42.28250000     -32.80310000     -68.15940000
H      -44.65170000     -32.12540000     -67.72960000
