40
Properties=species:S:1:pos:R:3 #=T CELL(abcABC):=T 1.889726e+02=T 90.00000=T Traj:=T positionsangstrom=T Step:=T 0=T Bead:=T pbc="F F F"
C      -48.40340000     -31.22910000     -72.75210000
C      -48.29180000     -32.24950000     -71.79450000
C      -48.05000000     -33.57540000     -72.12800000
C      -47.67670000     -33.90680000     -73.48970000
C      -47.60070000     -32.86000000     -74.38290000
C      -48.06260000     -31.55580000     -74.05730000
H      -48.72860000     -30.30790000     -72.37460000
H      -47.92370000     -34.38230000     -71.41840000
H      -47.23410000     -33.02990000     -75.39580000
H      -48.08800000     -30.79060000     -74.89670000
C      -47.49350000     -35.36630000     -73.89860000
H      -47.62430000     -35.42760000     -74.97050000
H      -48.10840000     -36.07740000     -73.28570000
C      -48.76620000     -31.89840000     -70.42700000
H      -49.78100000     -31.43050000     -70.43510000
H      -48.86260000     -32.75950000     -69.76580000
S      -45.77730000     -36.02020000     -73.64910000
S      -47.67010000     -30.60640000     -69.64570000
C      -44.77740000     -34.52290000     -74.03010000
H      -43.84040000     -34.88510000     -74.48200000
H      -45.27620000     -34.21430000     -74.93770000
C      -46.27390000     -31.50990000     -68.95380000
H      -46.63410000     -32.51680000     -68.56950000
H      -46.01170000     -30.89090000     -68.14270000
C      -45.19640000     -31.66700000     -70.01140000
H      -45.62390000     -31.99020000     -70.94110000
H      -44.92810000     -30.58320000     -70.23360000
C      -44.49060000     -33.58310000     -72.89170000
H      -45.47230000     -33.36770000     -72.37810000
H      -44.16880000     -32.60780000     -73.29500000
C      -43.53040000     -34.02400000     -71.82650000
C      -42.61860000     -35.02720000     -72.02370000
C      -43.37740000     -33.49000000     -70.45240000
H      -42.46980000     -35.51980000     -73.05130000
C      -42.31340000     -34.09670000     -69.74540000
C      -44.02170000     -32.54990000     -69.58780000
C      -43.61720000     -32.64140000     -68.32730000
S      -41.48080000     -35.32330000     -70.70290000
S      -42.30730000     -33.74620000     -68.02580000
H      -44.14830000     -32.04580000     -67.56500000
