40
Properties=species:S:1:pos:R:3 #=T CELL(abcABC):=T 1.889726e+02=T 90.00000=T Traj:=T positionsangstrom=T Step:=T 0=T Bead:=T pbc="F F F"
C      -48.60730000     -35.01680000     -71.71740000
C      -48.40830000     -33.83660000     -72.45560000
C      -47.46110000     -33.85590000     -73.48230000
C      -46.80520000     -35.06310000     -73.84910000
C      -46.89420000     -36.09700000     -72.93620000
C      -47.79760000     -36.15040000     -71.87830000
H      -49.37430000     -35.09210000     -70.94190000
H      -47.44050000     -32.92420000     -74.02790000
H      -46.27580000     -36.98320000     -73.13730000
H      -47.91090000     -37.00170000     -71.17650000
C      -45.87120000     -35.12990000     -75.01710000
H      -46.52820000     -35.21620000     -75.92870000
H      -45.32510000     -36.06080000     -74.93230000
C      -49.24360000     -32.58630000     -72.16850000
H      -49.40510000     -31.94640000     -73.02760000
H      -50.20140000     -32.89630000     -71.86810000
S      -44.69890000     -33.75540000     -75.22530000
S      -48.47410000     -31.43970000     -70.92940000
C      -43.64010000     -33.83170000     -73.72040000
H      -43.43310000     -34.83040000     -73.42790000
H      -42.69600000     -33.38620000     -74.02280000
C      -46.90050000     -32.29600000     -70.20760000
H      -46.77620000     -33.27910000     -70.57840000
H      -47.15470000     -32.39590000     -69.17050000
C      -45.73880000     -31.37800000     -70.17310000
H      -45.23910000     -31.30900000     -71.10780000
H      -46.00510000     -30.36460000     -69.85520000
C      -44.16110000     -33.07420000     -72.50930000
H      -45.22030000     -33.35880000     -72.19900000
H      -44.19440000     -31.99320000     -72.83130000
C      -43.28350000     -33.23880000     -71.17960000
C      -42.18100000     -34.02750000     -71.10690000
C      -43.62950000     -32.68060000     -69.82330000
H      -41.75490000     -34.56530000     -71.88880000
C      -42.74590000     -33.04870000     -68.84630000
C      -44.71490000     -31.93690000     -69.31550000
C      -44.72740000     -31.77980000     -67.94770000
S      -41.47800000     -34.10930000     -69.53130000
S      -43.38060000     -32.54010000     -67.20870000
H      -45.52780000     -31.23040000     -67.45160000
