40
Properties=species:S:1:pos:R:3 #=T CELL(abcABC):=T 1.889726e+02=T 90.00000=T Traj:=T positionsangstrom=T Step:=T 0=T Bead:=T pbc="F F F"
C      -48.11620000     -31.13020000     -72.51200000
C      -48.26740000     -32.20340000     -71.58110000
C      -48.00980000     -33.52750000     -72.08570000
C      -47.69330000     -33.76390000     -73.38760000
C      -47.48460000     -32.68500000     -74.28400000
C      -47.82890000     -31.38990000     -73.88740000
H      -48.32160000     -30.02200000     -72.27290000
H      -48.27150000     -34.38620000     -71.50530000
H      -47.21210000     -32.93350000     -75.28340000
H      -47.87800000     -30.55160000     -74.54170000
C      -47.55750000     -35.19550000     -73.80270000
H      -48.38730000     -35.23280000     -74.59050000
H      -47.72600000     -35.93140000     -73.01520000
C      -48.80920000     -31.92560000     -70.17300000
H      -49.81890000     -31.67010000     -70.17920000
H      -48.75280000     -32.80800000     -69.50660000
S      -45.77920000     -35.64610000     -74.43850000
S      -47.81840000     -30.67920000     -69.33230000
C      -44.73710000     -34.15610000     -74.10850000
H      -43.81840000     -34.68870000     -74.45220000
H      -44.90370000     -33.26590000     -74.73910000
C      -46.39220000     -31.71380000     -68.67420000
H      -46.70770000     -32.49220000     -67.93910000
H      -45.67160000     -30.99380000     -68.13850000
C      -45.56510000     -32.31610000     -69.83770000
H      -46.11660000     -33.08230000     -70.41140000
H      -45.47980000     -31.45980000     -70.50350000
C      -44.68940000     -33.58880000     -72.62210000
H      -45.55190000     -33.73150000     -71.97400000
H      -44.67760000     -32.48430000     -72.68600000
C      -43.49130000     -34.12050000     -71.77670000
C      -42.54650000     -34.95840000     -72.21670000
C      -43.41110000     -33.70080000     -70.40920000
H      -42.55020000     -35.27830000     -73.13430000
C      -42.23960000     -34.19770000     -69.82960000
C      -44.24010000     -32.92330000     -69.50350000
C      -43.57280000     -32.81300000     -68.34290000
S      -41.54240000     -35.45370000     -70.82390000
S      -42.03760000     -33.69880000     -68.20030000
H      -43.84190000     -32.13050000     -67.52830000
