40
Properties=species:S:1:pos:R:3 #=T CELL(abcABC):=T 1.889726e+02=T 90.00000=T Traj:=T positionsangstrom=T Step:=T 0=T Bead:=T pbc="F F F"
C      -48.92710000     -31.69260000     -73.10870000
C      -48.75770000     -32.32800000     -71.90150000
C      -48.30770000     -33.71100000     -71.99490000
C      -47.85880000     -34.24540000     -73.18630000
C      -48.02430000     -33.54520000     -74.38950000
C      -48.57690000     -32.29180000     -74.35140000
H      -49.40110000     -30.75300000     -73.27600000
H      -48.16060000     -34.38430000     -71.10690000
H      -47.66790000     -34.07910000     -75.29380000
H      -48.93730000     -31.81590000     -75.28720000
C      -47.36670000     -35.65830000     -73.23140000
H      -47.35670000     -36.09860000     -74.23290000
H      -48.07080000     -36.33110000     -72.69780000
C      -49.01000000     -31.71600000     -70.54720000
H      -49.95770000     -31.19280000     -70.53970000
H      -49.04580000     -32.45010000     -69.74910000
S      -45.77840000     -36.03400000     -72.41190000
S      -47.69970000     -30.39190000     -70.25360000
C      -44.60820000     -35.29760000     -73.51270000
H      -43.77210000     -35.87100000     -73.75060000
H      -45.11510000     -35.22120000     -74.45320000
C      -46.26360000     -31.34110000     -69.55470000
H      -46.62030000     -32.07860000     -68.89840000
H      -45.82210000     -30.51590000     -69.00250000
C      -45.32850000     -31.96950000     -70.64050000
H      -45.86150000     -32.78620000     -71.22880000
H      -45.08860000     -31.21270000     -71.31200000
C      -44.07270000     -33.87080000     -73.07560000
H      -44.85100000     -33.21930000     -72.60770000
H      -43.74320000     -33.30520000     -73.91200000
C      -43.08120000     -33.95060000     -71.93580000
C      -41.97960000     -34.84190000     -72.00620000
C      -43.21660000     -33.37060000     -70.60810000
H      -41.52910000     -35.34820000     -72.88370000
C      -42.19980000     -33.87450000     -69.76720000
C      -44.12540000     -32.48800000     -69.93870000
C      -43.80770000     -32.40700000     -68.61920000
S      -41.03130000     -34.78350000     -70.57530000
S      -42.36000000     -33.24600000     -68.12190000
H      -44.24710000     -31.70960000     -67.98910000
