40
Properties=species:S:1:pos:R:3 #=T CELL(abcABC):=T 1.889726e+02=T 90.00000=T Traj:=T positionsangstrom=T Step:=T 0=T Bead:=T pbc="F F F"
C      -48.41180000     -31.39490000     -73.07030000
C      -48.42260000     -32.32320000     -71.99670000
C      -48.08850000     -33.68350000     -72.20330000
C      -47.81670000     -34.14630000     -73.44860000
C      -47.83010000     -33.21390000     -74.52620000
C      -48.05350000     -31.86510000     -74.34720000
H      -48.75810000     -30.37050000     -72.87650000
H      -48.06400000     -34.24930000     -71.26910000
H      -47.58670000     -33.50000000     -75.55250000
H      -48.07820000     -31.28070000     -75.19060000
C      -47.52450000     -35.59790000     -73.57140000
H      -47.48920000     -36.06750000     -74.57950000
H      -48.24310000     -36.08900000     -72.94780000
C      -48.76470000     -31.97130000     -70.53490000
H      -49.81750000     -31.70280000     -70.45010000
H      -48.71120000     -32.90080000     -69.89380000
S      -45.78560000     -35.84030000     -72.83780000
S      -47.80780000     -30.55460000     -69.75210000
C      -44.74180000     -34.63700000     -73.90840000
H      -44.11270000     -35.34450000     -74.50900000
H      -45.40730000     -34.06600000     -74.59190000
C      -46.20180000     -31.20540000     -69.14900000
H      -46.38990000     -31.95890000     -68.40670000
H      -45.74550000     -30.26980000     -68.65920000
C      -45.36030000     -31.77890000     -70.26840000
H      -46.08900000     -32.51970000     -70.76420000
H      -45.13850000     -31.00620000     -70.99500000
C      -44.04930000     -33.52900000     -73.11840000
H      -44.76280000     -32.69970000     -72.92740000
H      -43.36270000     -33.12720000     -73.88540000
C      -43.30560000     -34.04330000     -71.90090000
C      -42.27850000     -34.96920000     -72.01860000
C      -43.38940000     -33.55980000     -70.53660000
H      -41.99300000     -35.47990000     -72.89950000
C      -42.46820000     -34.16580000     -69.71270000
C      -44.07660000     -32.50110000     -69.81170000
C      -43.55750000     -32.32430000     -68.57790000
S      -41.47510000     -35.36370000     -70.50160000
S      -42.29070000     -33.45910000     -68.14960000
H      -43.86550000     -31.62290000     -67.74620000
