40
Properties=species:S:1:pos:R:3 #=T CELL(abcABC):=T 1.889726e+02=T 90.00000=T Traj:=T positionsangstrom=T Step:=T 0=T Bead:=T pbc="F F F"
C      -44.11240000     -30.84900000     -68.44530000
C      -45.48980000     -31.11210000     -68.56760000
C      -45.95460000     -32.35380000     -68.21040000
C      -45.16610000     -33.39090000     -67.85080000
C      -43.78560000     -33.06950000     -67.66660000
C      -43.26990000     -31.81600000     -68.02160000
H      -43.75200000     -29.89030000     -68.72560000
H      -47.02320000     -32.54850000     -68.33150000
H      -43.11630000     -33.81150000     -67.23530000
H      -42.22010000     -31.58910000     -67.85230000
C      -45.72520000     -34.72920000     -67.59260000
H      -46.80330000     -34.86450000     -67.80890000
H      -45.73870000     -34.98290000     -66.53430000
C      -46.49290000     -30.04080000     -69.01180000
H      -47.50540000     -30.33650000     -68.74640000
H      -46.26930000     -29.10980000     -68.44880000
S      -44.74320000     -36.08350000     -68.44860000
S      -46.40760000     -29.72720000     -70.79580000
C      -45.01990000     -35.78690000     -70.31990000
H      -44.71720000     -36.74420000     -70.77930000
H      -46.08240000     -35.72230000     -70.49530000
C      -45.79440000     -31.18930000     -71.75660000
H      -44.98230000     -31.59650000     -71.16860000
H      -45.40170000     -30.88090000     -72.66750000
C      -46.84740000     -32.23400000     -72.07510000
H      -47.14720000     -32.85280000     -71.24930000
H      -47.80540000     -31.78090000     -72.33460000
C      -44.25460000     -34.56020000     -71.00970000
H      -43.18340000     -34.59570000     -70.76450000
H      -44.63410000     -33.59130000     -70.67550000
C      -44.49160000     -34.82900000     -72.53940000
C      -43.80380000     -35.86920000     -73.22070000
C      -45.41570000     -34.16090000     -73.39680000
H      -43.01630000     -36.50450000     -72.90280000
C      -45.26150000     -34.56990000     -74.70360000
C      -46.39350000     -33.04470000     -73.32700000
C      -46.99080000     -32.83720000     -74.56370000
S      -44.07440000     -35.80050000     -74.97640000
S      -46.42170000     -33.80510000     -75.82080000
H      -47.82850000     -32.10990000     -74.79620000
