40
Properties=species:S:1:pos:R:3 #=T CELL(abcABC):=T 1.889726e+02=T 90.00000=T Traj:=T positionsangstrom=T Step:=T 0=T Bead:=T pbc="F F F"
C      -44.25200000     -30.84740000     -68.32290000
C      -45.58890000     -31.17540000     -68.50050000
C      -46.04480000     -32.44020000     -68.17280000
C      -45.21790000     -33.42300000     -67.65580000
C      -43.84270000     -33.06430000     -67.56090000
C      -43.36860000     -31.79210000     -67.84120000
H      -43.85840000     -29.88110000     -68.37430000
H      -47.04410000     -32.64090000     -68.26020000
H      -43.15480000     -33.84730000     -67.35150000
H      -42.25370000     -31.62620000     -67.91620000
C      -45.60340000     -34.82810000     -67.42860000
H      -46.65500000     -34.97810000     -67.61050000
H      -45.28990000     -35.16050000     -66.42650000
C      -46.54420000     -30.13490000     -69.08090000
H      -47.54640000     -30.32790000     -68.83100000
H      -46.38010000     -29.12630000     -68.56890000
S      -44.62280000     -35.94930000     -68.59590000
S      -46.50330000     -29.81230000     -70.87710000
C      -45.35290000     -35.55090000     -70.27890000
H      -45.56880000     -36.53300000     -70.76620000
H      -46.39260000     -35.13770000     -70.13660000
C      -45.77870000     -31.34790000     -71.61870000
H      -45.08100000     -31.72990000     -70.85510000
H      -45.21590000     -30.99660000     -72.51340000
C      -46.81740000     -32.41670000     -72.08350000
H      -47.00560000     -33.10190000     -71.26180000
H      -47.83900000     -31.88560000     -72.23830000
C      -44.41020000     -34.63360000     -71.06910000
H      -43.40100000     -35.03510000     -70.85550000
H      -44.52800000     -33.62120000     -70.70250000
C      -44.36470000     -34.69210000     -72.60980000
C      -43.53460000     -35.56110000     -73.28280000
C      -45.36940000     -34.14300000     -73.46630000
H      -42.73400000     -36.08430000     -72.83850000
C      -45.16750000     -34.58240000     -74.76480000
C      -46.43890000     -33.12080000     -73.36390000
C      -47.08770000     -32.88820000     -74.52660000
S      -43.95830000     -35.72910000     -75.00270000
S      -46.35200000     -33.84030000     -75.85260000
H      -47.84060000     -32.13450000     -74.65380000
