40
Properties=species:S:1:pos:R:3 #=T CELL(abcABC):=T 1.889726e+02=T 90.00000=T Traj:=T positionsangstrom=T Step:=T 0=T Bead:=T pbc="F F F"
C      -44.67900000     -30.78790000     -68.22120000
C      -45.89060000     -31.48910000     -68.57490000
C      -45.93520000     -32.91420000     -68.32710000
C      -44.79540000     -33.60730000     -67.88140000
C      -43.54580000     -32.98610000     -67.74730000
C      -43.51200000     -31.58030000     -67.88570000
H      -44.58600000     -29.71730000     -68.45250000
H      -46.81900000     -33.39890000     -68.33490000
H      -42.65810000     -33.56600000     -67.64820000
H      -42.64390000     -30.91160000     -67.86600000
C      -44.98480000     -35.06210000     -67.49150000
H      -45.90130000     -35.12140000     -66.91860000
H      -44.23070000     -35.43770000     -66.77450000
C      -47.03200000     -30.82990000     -69.24400000
H      -47.77270000     -31.58690000     -69.40900000
H      -47.43260000     -29.97310000     -68.69080000
S      -44.90190000     -36.34280000     -68.86260000
S      -46.53630000     -29.85800000     -70.73100000
C      -45.54470000     -35.44650000     -70.37600000
H      -45.85350000     -36.19510000     -71.13710000
H      -46.47630000     -34.99510000     -70.10450000
C      -45.97070000     -31.22060000     -71.89170000
H      -45.04290000     -31.58080000     -71.48440000
H      -45.72080000     -30.77570000     -72.84680000
C      -47.00450000     -32.33540000     -72.11770000
H      -47.21500000     -32.91750000     -71.20740000
H      -47.95050000     -31.88010000     -72.44900000
C      -44.50780000     -34.50170000     -70.89580000
H      -43.63570000     -34.89870000     -70.52110000
H      -44.59120000     -33.50260000     -70.42690000
C      -44.33460000     -34.44990000     -72.45720000
C      -43.24930000     -35.01740000     -73.08520000
C      -45.33720000     -33.96540000     -73.32150000
H      -42.34440000     -35.30660000     -72.59600000
C      -45.01850000     -34.30090000     -74.65870000
C      -46.51570000     -33.23500000     -73.21200000
C      -47.07680000     -33.09280000     -74.49870000
S      -43.56990000     -35.16150000     -74.84220000
S      -46.33590000     -33.88370000     -75.75060000
H      -48.06150000     -32.64150000     -74.70720000
