40
Properties=species:S:1:pos:R:3 #=T CELL(abcABC):=T 1.889726e+02=T 90.00000=T Traj:=T positionsangstrom=T Step:=T 0=T Bead:=T pbc="F F F"
C      -48.29890000     -32.49700000     -69.65760000
C      -47.57410000     -31.33040000     -69.91440000
C      -46.26720000     -31.14210000     -69.32790000
C      -45.65460000     -32.18950000     -68.64950000
C      -46.33780000     -33.42780000     -68.59360000
C      -47.64360000     -33.57380000     -69.02940000
H      -49.29490000     -32.69390000     -70.05870000
H      -45.55900000     -30.37000000     -69.72360000
H      -45.84890000     -34.30980000     -68.17360000
H      -48.21690000     -34.49060000     -68.82230000
C      -44.24030000     -32.12150000     -68.14010000
H      -44.29930000     -32.01770000     -67.03180000
H      -43.67930000     -31.36460000     -68.61490000
C      -48.09370000     -30.22910000     -70.81740000
H      -49.18530000     -30.44380000     -70.95130000
H      -47.95360000     -29.27440000     -70.24680000
S      -43.27340000     -33.67890000     -68.23860000
S      -47.22570000     -29.85970000     -72.40890000
C      -42.24520000     -33.19790000     -69.70700000
H      -41.84950000     -32.18270000     -69.47580000
H      -41.37670000     -33.86540000     -69.71710000
C      -46.85260000     -31.45820000     -73.32120000
H      -46.61680000     -31.08630000     -74.30570000
H      -47.73900000     -32.15960000     -73.32650000
C      -45.65060000     -32.26590000     -72.68570000
H      -44.59690000     -31.73150000     -72.59960000
H      -45.97790000     -32.50340000     -71.65100000
C      -42.94590000     -33.14990000     -71.02550000
H      -42.24870000     -32.77340000     -71.82620000
H      -43.66750000     -32.28370000     -70.90160000
C      -43.62010000     -34.49790000     -71.60070000
C      -43.07590000     -35.71970000     -71.29750000
C      -44.58580000     -34.55780000     -72.66950000
H      -42.35320000     -35.94800000     -70.53230000
C      -44.73100000     -35.84640000     -73.23130000
C      -45.50780000     -33.61040000     -73.32430000
C      -46.02500000     -34.08610000     -74.47880000
S      -43.61780000     -37.01990000     -72.38780000
S      -45.62600000     -35.76510000     -74.70090000
H      -46.79270000     -33.51420000     -75.03280000
