40
Properties=species:S:1:pos:R:3 #=T CELL(abcABC):=T 1.889726e+02=T 90.00000=T Traj:=T positionsangstrom=T Step:=T 0=T Bead:=T pbc="F F F"
C      -43.71800000     -30.67040000     -68.29480000
C      -45.03550000     -31.13950000     -68.58650000
C      -45.42110000     -32.42890000     -68.42490000
C      -44.52960000     -33.40760000     -67.92520000
C      -43.27840000     -33.01040000     -67.60800000
C      -42.84190000     -31.65270000     -67.82280000
H      -43.32260000     -29.73850000     -68.55920000
H      -46.46710000     -32.57240000     -68.53200000
H      -42.48190000     -33.66920000     -67.33680000
H      -41.81480000     -31.33580000     -67.54380000
C      -45.12780000     -34.73470000     -67.51430000
H      -46.21420000     -34.74950000     -67.32520000
H      -44.63600000     -35.19600000     -66.66550000
C      -46.12340000     -30.18380000     -68.95960000
H      -47.13030000     -30.63830000     -68.94160000
H      -46.15170000     -29.20000000     -68.42730000
S      -45.05280000     -36.22850000     -68.68880000
S      -45.76720000     -29.55530000     -70.76580000
C      -45.60250000     -35.76650000     -70.37250000
H      -45.63670000     -36.78900000     -70.86340000
H      -46.61180000     -35.26200000     -70.40470000
C      -45.34740000     -31.06920000     -71.71190000
H      -44.48120000     -31.46730000     -71.29860000
H      -45.07830000     -30.68960000     -72.69120000
C      -46.52450000     -32.11020000     -71.90770000
H      -46.45080000     -32.78130000     -71.12260000
H      -47.41070000     -31.45170000     -71.86770000
C      -44.56820000     -34.91940000     -71.11800000
H      -43.58710000     -35.18710000     -70.85510000
H      -44.62700000     -33.74970000     -70.92600000
C      -44.83760000     -35.09200000     -72.62410000
C      -44.43090000     -36.19640000     -73.36580000
C      -45.65030000     -34.16330000     -73.37860000
H      -44.04060000     -37.10610000     -72.95500000
C      -45.83500000     -34.61950000     -74.70170000
C      -46.36850000     -32.89060000     -73.20600000
C      -46.80490000     -32.33760000     -74.37170000
S      -45.11750000     -36.21830000     -75.01160000
S      -46.65900000     -33.44900000     -75.74560000
H      -47.37730000     -31.41550000     -74.37790000
