40
Properties=species:S:1:pos:R:3 #=T CELL(abcABC):=T 1.889726e+02=T 90.00000=T Traj:=T positionsangstrom=T Step:=T 0=T Bead:=T pbc="F F F"
C      -44.10960000     -30.78780000     -68.44280000
C      -45.46910000     -31.05380000     -68.67000000
C      -45.88490000     -32.38720000     -68.46440000
C      -45.02940000     -33.43720000     -68.06170000
C      -43.69850000     -33.08840000     -67.85680000
C      -43.26640000     -31.78470000     -68.04480000
H      -43.83310000     -29.69300000     -68.67710000
H      -46.93890000     -32.56860000     -68.55640000
H      -42.95890000     -33.77700000     -67.50390000
H      -42.24740000     -31.57480000     -67.79190000
C      -45.57030000     -34.77760000     -67.75920000
H      -46.63310000     -34.68580000     -68.04660000
H      -45.33180000     -34.79970000     -66.70080000
C      -46.41700000     -30.03020000     -69.06970000
H      -47.47760000     -30.45780000     -68.96860000
H      -46.26620000     -29.11740000     -68.44190000
S      -44.78490000     -36.25270000     -68.56450000
S      -46.27310000     -29.47560000     -70.89080000
C      -45.15520000     -36.14930000     -70.32340000
H      -44.68220000     -37.01100000     -70.79370000
H      -46.25870000     -36.04710000     -70.55260000
C      -45.63380000     -30.94330000     -71.77560000
H      -44.80060000     -31.20780000     -71.10590000
H      -45.21610000     -30.58020000     -72.75350000
C      -46.59280000     -32.14820000     -71.99560000
H      -46.43280000     -32.78260000     -71.09050000
H      -47.62070000     -31.77910000     -72.07670000
C      -44.57090000     -34.78690000     -70.90910000
H      -43.55910000     -34.54220000     -70.56330000
H      -45.23810000     -34.00930000     -70.44100000
C      -44.52770000     -34.79280000     -72.41440000
C      -43.78880000     -35.74620000     -73.09300000
C      -45.42540000     -34.06600000     -73.32350000
H      -43.08160000     -36.45380000     -72.59610000
C      -45.38280000     -34.58430000     -74.61390000
C      -46.38460000     -32.95530000     -73.19810000
C      -47.05510000     -32.71660000     -74.44220000
S      -44.28130000     -35.96900000     -74.75930000
S      -46.45050000     -33.81300000     -75.77030000
H      -47.76670000     -31.90210000     -74.53420000
