40
Properties=species:S:1:pos:R:3 #=T CELL(abcABC):=T 1.889726e+02=T 90.00000=T Traj:=T positionsangstrom=T Step:=T 0=T Bead:=T pbc="F F F"
C      -43.99430000     -31.20240000     -68.77900000
C      -45.42870000     -31.40590000     -68.81400000
C      -45.97990000     -32.55340000     -68.19330000
C      -45.14640000     -33.50570000     -67.62920000
C      -43.77750000     -33.23990000     -67.50840000
C      -43.18820000     -32.12480000     -68.09600000
H      -43.57540000     -30.31280000     -69.13890000
H      -47.08320000     -32.56370000     -68.22780000
H      -43.16040000     -34.16340000     -67.23630000
H      -42.14660000     -32.03300000     -68.17310000
C      -45.66160000     -34.95200000     -67.36880000
H      -46.72450000     -34.88440000     -67.55350000
H      -45.41660000     -35.22010000     -66.31650000
C      -46.28450000     -30.27990000     -69.36200000
H      -47.27450000     -30.72250000     -69.54550000
H      -46.49310000     -29.54190000     -68.60000000
S      -44.68070000     -36.04740000     -68.46740000
S      -45.56470000     -29.46770000     -70.86200000
C      -45.36240000     -35.71260000     -70.20540000
H      -45.40970000     -36.66820000     -70.71870000
H      -46.34080000     -35.23140000     -70.00980000
C      -45.26360000     -30.89330000     -71.98820000
H      -44.28730000     -31.33960000     -71.82470000
H      -45.24580000     -30.54150000     -72.95780000
C      -46.30330000     -32.07710000     -71.87310000
H      -46.06740000     -32.62140000     -70.98720000
H      -47.21350000     -31.63320000     -71.66980000
C      -44.43930000     -34.82780000     -71.07260000
H      -43.37520000     -35.07340000     -70.80940000
H      -44.52600000     -33.77250000     -70.91680000
C      -44.66820000     -34.96150000     -72.57560000
C      -44.36260000     -36.08070000     -73.26920000
C      -45.55730000     -34.08420000     -73.37410000
H      -43.73530000     -36.90630000     -72.99090000
C      -45.67640000     -34.47460000     -74.71040000
C      -46.30780000     -32.87400000     -73.15570000
C      -46.84970000     -32.36210000     -74.30640000
S      -44.80440000     -35.98100000     -74.96260000
S      -46.65900000     -33.44590000     -75.73110000
H      -47.39250000     -31.43740000     -74.40350000
