40
Properties=species:S:1:pos:R:3 #=T CELL(abcABC):=T 1.889726e+02=T 90.00000=T Traj:=T positionsangstrom=T Step:=T 0=T Bead:=T pbc="F F F"
C      -48.31720000     -34.85030000     -70.42030000
C      -48.63770000     -33.87990000     -71.46690000
C      -48.04980000     -34.00750000     -72.71550000
C      -47.28560000     -35.13680000     -73.09620000
C      -46.83880000     -35.99360000     -72.09520000
C      -47.50120000     -35.86620000     -70.80670000
H      -48.80620000     -34.75050000     -69.44180000
H      -48.22480000     -33.26640000     -73.47790000
H      -46.18650000     -36.81580000     -72.28700000
H      -47.19210000     -36.60460000     -70.04460000
C      -46.82410000     -35.45390000     -74.46570000
H      -47.69510000     -35.42170000     -75.17610000
H      -46.42910000     -36.47120000     -74.53860000
C      -49.53850000     -32.67700000     -71.01400000
H      -50.26530000     -32.35750000     -71.77520000
H      -50.24910000     -32.77690000     -70.11820000
S      -45.52410000     -34.32260000     -75.11320000
S      -48.54680000     -31.08520000     -70.68580000
C      -44.11660000     -34.47530000     -73.93190000
H      -44.15240000     -35.45440000     -73.47870000
H      -43.18760000     -34.35900000     -74.42630000
C      -47.04200000     -31.81440000     -69.89320000
H      -46.93500000     -32.89840000     -70.01040000
H      -47.05090000     -31.42350000     -68.83910000
C      -45.68200000     -31.35310000     -70.43010000
H      -45.68620000     -31.37960000     -71.51350000
H      -45.60550000     -30.26840000     -70.12790000
C      -44.15420000     -33.20080000     -72.97850000
H      -45.04380000     -33.07550000     -72.39760000
H      -43.82100000     -32.37210000     -73.65460000
C      -43.10800000     -33.20060000     -71.85730000
C      -41.82430000     -33.76210000     -71.93930000
C      -43.38530000     -32.69700000     -70.50930000
H      -41.31920000     -34.26350000     -72.73140000
C      -42.32030000     -32.98340000     -69.60700000
C      -44.46180000     -32.03680000     -69.84540000
C      -44.24090000     -31.86630000     -68.47730000
S      -40.96290000     -33.78720000     -70.40050000
S      -42.73300000     -32.54960000     -67.92010000
H      -44.86770000     -31.34930000     -67.74680000
