40
Properties=species:S:1:pos:R:3 #=T CELL(abcABC):=T 1.889726e+02=T 90.00000=T Traj:=T positionsangstrom=T Step:=T 0=T Bead:=T pbc="F F F"
C      -43.70350000     -30.80470000     -68.48010000
C      -45.05610000     -31.12740000     -68.65740000
C      -45.41190000     -32.43660000     -68.28680000
C      -44.55190000     -33.37000000     -67.73850000
C      -43.18750000     -32.97240000     -67.55640000
C      -42.80530000     -31.74170000     -68.04330000
H      -43.29760000     -29.76380000     -68.82060000
H      -46.47630000     -32.73540000     -68.40850000
H      -42.50540000     -33.58590000     -66.92860000
H      -41.77050000     -31.62620000     -68.06440000
C      -45.09060000     -34.68860000     -67.31350000
H      -46.19280000     -34.62090000     -67.26820000
H      -44.57210000     -35.02030000     -66.35970000
C      -46.05460000     -30.14080000     -69.03330000
H      -47.15510000     -30.49280000     -68.89490000
H      -45.93490000     -29.17670000     -68.43950000
S      -44.70050000     -36.04840000     -68.53830000
S      -45.77090000     -29.67700000     -70.85990000
C      -45.66000000     -35.40750000     -70.08780000
H      -46.25850000     -36.34060000     -70.32140000
H      -46.47580000     -34.61900000     -69.81820000
C      -45.48010000     -31.23840000     -71.64700000
H      -44.64690000     -31.78810000     -71.17330000
H      -45.13450000     -30.98600000     -72.65570000
C      -46.63970000     -32.13620000     -71.93090000
H      -46.80370000     -32.76240000     -70.97210000
H      -47.56450000     -31.54140000     -72.03700000
C      -44.62100000     -35.04480000     -71.13460000
H      -43.72770000     -35.81490000     -71.08380000
H      -44.26140000     -34.08870000     -70.87340000
C      -45.00710000     -35.11780000     -72.65740000
C      -44.59770000     -36.23750000     -73.40530000
C      -45.81540000     -34.22630000     -73.45110000
H      -43.96400000     -37.05250000     -72.99950000
C      -45.77340000     -34.58300000     -74.78220000
C      -46.48200000     -32.93050000     -73.20240000
C      -47.06960000     -32.49130000     -74.35410000
S      -44.96050000     -36.07420000     -75.17930000
S      -46.78100000     -33.52130000     -75.71700000
H      -47.51670000     -31.51530000     -74.51760000
