40
Properties=species:S:1:pos:R:3 #=T CELL(abcABC):=T 1.889726e+02=T 90.00000=T Traj:=T positionsangstrom=T Step:=T 0=T Bead:=T pbc="F F F"
C      -44.09080000     -30.88070000     -68.52020000
C      -45.42700000     -31.17180000     -68.76960000
C      -45.88000000     -32.50120000     -68.66750000
C      -44.99120000     -33.50180000     -68.14420000
C      -43.65530000     -33.10310000     -67.88950000
C      -43.15700000     -31.86860000     -68.06330000
H      -43.80240000     -29.77160000     -68.53700000
H      -46.90080000     -32.77300000     -68.87670000
H      -43.07730000     -33.94510000     -67.67320000
H      -42.03810000     -31.76020000     -68.03130000
C      -45.57230000     -34.88020000     -67.75750000
H      -46.63600000     -35.05250000     -67.96250000
H      -45.62770000     -35.14300000     -66.64340000
C      -46.43930000     -30.12240000     -69.25130000
H      -47.44250000     -30.51160000     -69.27600000
H      -46.45580000     -29.28590000     -68.53090000
S      -44.72350000     -36.25470000     -68.52890000
S      -46.04870000     -29.37720000     -70.90320000
C      -45.31880000     -35.87830000     -70.26030000
H      -45.26550000     -36.83530000     -70.71110000
H      -46.37050000     -35.68460000     -70.23200000
C      -45.43090000     -30.83510000     -71.95930000
H      -44.49450000     -31.20690000     -71.68980000
H      -45.32180000     -30.42470000     -72.97900000
C      -46.51260000     -31.96520000     -71.96210000
H      -46.60670000     -32.49920000     -71.05710000
H      -47.43390000     -31.35490000     -72.00260000
C      -44.50920000     -34.76920000     -70.85460000
H      -43.48840000     -34.96680000     -70.63760000
H      -44.84240000     -33.78600000     -70.54180000
C      -44.62390000     -34.90130000     -72.37040000
C      -44.04270000     -35.98520000     -72.98770000
C      -45.44670000     -34.06030000     -73.26290000
H      -43.40860000     -36.78490000     -72.62760000
C      -45.46270000     -34.57860000     -74.54490000
C      -46.31730000     -32.90590000     -73.13200000
C      -46.94240000     -32.61040000     -74.39030000
S      -44.41360000     -35.95190000     -74.75090000
S      -46.64210000     -33.80010000     -75.63020000
H      -47.61030000     -31.84500000     -74.72160000
