40
Properties=species:S:1:pos:R:3 #=T CELL(abcABC):=T 1.889726e+02=T 90.00000=T Traj:=T positionsangstrom=T Step:=T 0=T Bead:=T pbc="F F F"
C      -43.76130000     -30.66760000     -68.23110000
C      -45.05800000     -31.03410000     -68.40910000
C      -45.43070000     -32.40330000     -68.33550000
C      -44.48630000     -33.36390000     -67.87000000
C      -43.11490000     -32.94040000     -67.75690000
C      -42.75130000     -31.62570000     -67.97930000
H      -43.51000000     -29.59440000     -68.27420000
H      -46.45090000     -32.66600000     -68.53710000
H      -42.25000000     -33.63250000     -67.63700000
H      -41.70210000     -31.26490000     -67.81510000
C      -44.97210000     -34.77480000     -67.45260000
H      -45.94360000     -34.63960000     -66.97580000
H      -44.30120000     -35.04520000     -66.64520000
C      -46.05900000     -30.05520000     -69.07190000
H      -47.03540000     -30.42040000     -68.92040000
H      -46.05700000     -29.16880000     -68.42730000
S      -44.90960000     -36.20670000     -68.65960000
S      -45.79440000     -29.59840000     -70.80760000
C      -45.67370000     -35.68220000     -70.19950000
H      -46.02750000     -36.52600000     -70.73400000
H      -46.47970000     -35.01510000     -70.07050000
C      -45.30940000     -31.22740000     -71.68270000
H      -44.55340000     -31.72150000     -71.01730000
H      -44.80450000     -30.89360000     -72.63800000
C      -46.47250000     -32.20280000     -71.86610000
H      -46.47190000     -32.99450000     -71.14630000
H      -47.44340000     -31.71250000     -71.61440000
C      -44.63630000     -34.98450000     -71.12880000
H      -43.63850000     -35.33390000     -70.92370000
H      -44.55010000     -33.93230000     -70.76760000
C      -45.00680000     -35.09860000     -72.59950000
C      -44.63590000     -36.22280000     -73.33600000
C      -45.77780000     -34.17760000     -73.42130000
H      -44.05450000     -37.06430000     -73.01310000
C      -45.88370000     -34.65380000     -74.73570000
C      -46.46890000     -32.87330000     -73.22100000
C      -47.02730000     -32.43920000     -74.38380000
S      -45.04250000     -36.14480000     -75.08740000
S      -46.69380000     -33.48640000     -75.77160000
H      -47.48970000     -31.43660000     -74.43610000
