40
Properties=species:S:1:pos:R:3 #=T CELL(abcABC):=T 1.889726e+02=T 90.00000=T Traj:=T positionsangstrom=T Step:=T 0=T Bead:=T pbc="F F F"
C      -43.82990000     -30.89140000     -68.44720000
C      -45.17430000     -31.29220000     -68.72270000
C      -45.69410000     -32.57060000     -68.35790000
C      -44.88390000     -33.53840000     -67.85030000
C      -43.53380000     -33.22210000     -67.71630000
C      -43.03990000     -31.90780000     -67.87450000
H      -43.50040000     -29.92890000     -68.54010000
H      -46.74790000     -32.76930000     -68.66110000
H      -42.87660000     -33.83470000     -67.05950000
H      -42.09230000     -31.58640000     -67.65740000
C      -45.38990000     -34.89370000     -67.43190000
H      -46.47760000     -34.78990000     -67.42460000
H      -45.15610000     -35.11830000     -66.36850000
C      -46.12350000     -30.17660000     -69.21720000
H      -47.15320000     -30.56960000     -69.20340000
H      -46.08150000     -29.31750000     -68.52390000
S      -44.79150000     -36.20490000     -68.57400000
S      -45.71110000     -29.42020000     -70.81650000
C      -45.58250000     -35.61700000     -70.13960000
H      -46.14160000     -36.38830000     -70.61240000
H      -46.40040000     -34.95990000     -69.79620000
C      -45.14100000     -30.97020000     -71.80400000
H      -44.23130000     -31.43960000     -71.31040000
H      -44.80140000     -30.62170000     -72.80120000
C      -46.38260000     -31.88010000     -71.95990000
H      -46.49280000     -32.63900000     -71.07260000
H      -47.33490000     -31.35010000     -72.04290000
C      -44.49790000     -34.99290000     -71.11510000
H      -43.66360000     -35.59710000     -70.92460000
H      -44.37340000     -33.89790000     -70.84870000
C      -44.85200000     -35.08110000     -72.57080000
C      -44.51940000     -36.18590000     -73.27390000
C      -45.59120000     -34.09530000     -73.36390000
H      -44.05140000     -37.10600000     -72.88630000
C      -45.70100000     -34.51640000     -74.73660000
C      -46.34250000     -32.82780000     -73.20480000
C      -46.91450000     -32.41970000     -74.38600000
S      -44.93440000     -36.06030000     -74.99480000
S      -46.68560000     -33.49760000     -75.73550000
H      -47.33480000     -31.43330000     -74.53430000
