40
Properties=species:S:1:pos:R:3 #=T CELL(abcABC):=T 1.889726e+02=T 90.00000=T Traj:=T positionsangstrom=T Step:=T 0=T Bead:=T pbc="F F F"
C      -48.43710000     -34.86910000     -70.41650000
C      -48.66710000     -33.93680000     -71.42830000
C      -47.98810000     -34.02380000     -72.66000000
C      -47.30200000     -35.23560000     -73.03100000
C      -47.06450000     -36.20880000     -71.99090000
C      -47.64780000     -36.02460000     -70.75540000
H      -48.78270000     -34.80160000     -69.39060000
H      -48.03960000     -33.30680000     -73.39790000
H      -46.60610000     -37.12390000     -72.30340000
H      -47.38310000     -36.70510000     -69.96360000
C      -46.88090000     -35.35760000     -74.53030000
H      -47.73120000     -34.91590000     -75.03250000
H      -46.82600000     -36.38330000     -74.81260000
C      -49.57340000     -32.67280000     -71.01580000
H      -50.31790000     -32.40400000     -71.71950000
H      -50.12170000     -32.96720000     -70.12000000
S      -45.35070000     -34.34230000     -75.06760000
S      -48.48750000     -31.20640000     -70.75590000
C      -44.12450000     -34.36050000     -73.72860000
H      -44.58350000     -35.08160000     -72.98190000
H      -43.15230000     -34.82560000     -74.01760000
C      -47.01250000     -31.63800000     -69.66360000
H      -47.02340000     -32.65420000     -69.19290000
H      -47.12770000     -31.08990000     -68.79220000
C      -45.75420000     -31.53130000     -70.44760000
H      -45.91900000     -32.18260000     -71.37850000
H      -45.48860000     -30.51670000     -70.85640000
C      -44.08740000     -32.93270000     -73.03450000
H      -45.09420000     -32.75980000     -72.83020000
H      -43.79300000     -32.05300000     -73.72390000
C      -43.17880000     -33.10750000     -71.89470000
C      -41.94780000     -33.73720000     -72.00670000
C      -43.43210000     -32.65080000     -70.48980000
H      -41.49970000     -34.01450000     -72.87580000
C      -42.37410000     -33.03440000     -69.64610000
C      -44.46120000     -31.97920000     -69.75860000
C      -44.16470000     -31.84050000     -68.43490000
S      -41.03270000     -33.80960000     -70.48380000
S      -42.56060000     -32.43570000     -68.06530000
H      -44.72880000     -31.30910000     -67.69540000
