40
Properties=species:S:1:pos:R:3 #=T CELL(abcABC):=T 1.889726e+02=T 90.00000=T Traj:=T positionsangstrom=T Step:=T 0=T Bead:=T pbc="F F F"
C      -47.47030000     -29.93900000     -72.40530000
C      -47.98410000     -31.14530000     -71.97180000
C      -47.81000000     -32.31190000     -72.83190000
C      -47.11450000     -32.21930000     -73.99370000
C      -46.48040000     -30.98850000     -74.40390000
C      -46.72940000     -29.87370000     -73.63030000
H      -47.73710000     -28.98450000     -71.95660000
H      -48.26550000     -33.28940000     -72.53230000
H      -46.08280000     -30.82730000     -75.40340000
H      -46.24130000     -28.89120000     -73.87490000
C      -46.82340000     -33.44150000     -74.86040000
H      -46.27350000     -33.15150000     -75.71730000
H      -47.70250000     -34.07990000     -75.18840000
C      -48.81150000     -31.22500000     -70.71250000
H      -49.33870000     -30.28280000     -70.72000000
H      -49.50400000     -32.09160000     -70.63010000
S      -45.75230000     -34.73330000     -74.02460000
S      -47.86250000     -31.10250000     -69.03860000
C      -44.01860000     -33.90640000     -73.98230000
H      -43.24680000     -34.68330000     -74.23360000
H      -43.87680000     -33.13990000     -74.75000000
C      -47.08940000     -32.85690000     -69.07990000
H      -47.83570000     -33.59830000     -69.43090000
H      -46.93440000     -33.07480000     -67.98940000
C      -45.83040000     -32.85110000     -69.94730000
H      -46.19880000     -32.90730000     -70.98700000
H      -45.19420000     -32.05700000     -69.68750000
C      -43.61660000     -33.18960000     -72.63370000
H      -44.45200000     -32.66800000     -72.26550000
H      -42.80140000     -32.47140000     -72.90400000
C      -43.08240000     -34.17270000     -71.60140000
C      -41.87510000     -34.74990000     -71.79390000
C      -43.74770000     -34.49600000     -70.28800000
H      -41.20000000     -34.72330000     -72.65810000
C      -42.90990000     -35.42150000     -69.64330000
C      -44.96370000     -34.15320000     -69.61910000
C      -45.03460000     -34.82280000     -68.41440000
S      -41.45840000     -35.90500000     -70.49820000
S      -43.54880000     -35.67990000     -67.99830000
H      -45.70630000     -34.57470000     -67.65950000
