40
Properties=species:S:1:pos:R:3 #=T CELL(abcABC):=T 1.889726e+02=T 90.00000=T Traj:=T positionsangstrom=T Step:=T 0=T Bead:=T pbc="F F F"
C      -47.18120000     -29.55320000     -72.54560000
C      -47.82610000     -30.72980000     -72.22520000
C      -47.36830000     -31.95240000     -72.90130000
C      -46.54750000     -31.88210000     -73.98240000
C      -45.84550000     -30.65180000     -74.25790000
C      -46.14130000     -29.51260000     -73.48820000
H      -47.28280000     -28.70430000     -71.80280000
H      -47.71440000     -32.93440000     -72.58990000
H      -45.00660000     -30.58340000     -75.00460000
H      -45.72970000     -28.53860000     -73.67790000
C      -46.37910000     -33.15760000     -74.74870000
H      -45.73340000     -33.00010000     -75.61370000
H      -47.41570000     -33.44640000     -75.15210000
C      -48.66510000     -30.84290000     -70.95330000
H      -49.34490000     -30.02300000     -70.95530000
H      -49.31720000     -31.73710000     -70.90500000
S      -45.75710000     -34.65740000     -73.96910000
S      -47.70500000     -30.70380000     -69.35490000
C      -43.98280000     -34.30340000     -73.95330000
H      -43.34160000     -35.18310000     -74.27040000
H      -43.93030000     -33.54930000     -74.78440000
C      -47.17340000     -32.52340000     -69.26850000
H      -48.03410000     -33.14890000     -69.61140000
H      -46.88190000     -32.65740000     -68.25340000
C      -45.96160000     -32.99240000     -70.16460000
H      -46.42720000     -33.47290000     -71.13270000
H      -45.40720000     -32.06790000     -70.39730000
C      -43.42490000     -33.64780000     -72.61650000
H      -44.08320000     -32.72240000     -72.44150000
H      -42.50520000     -33.25490000     -72.99920000
C      -43.17840000     -34.51540000     -71.50330000
C      -42.02680000     -35.28790000     -71.54650000
C      -43.90760000     -34.68450000     -70.26200000
H      -41.45720000     -35.50640000     -72.39360000
C      -43.37430000     -35.76780000     -69.53570000
C      -44.97590000     -34.03290000     -69.54500000
C      -45.18600000     -34.61330000     -68.36910000
S      -41.92190000     -36.45660000     -70.17220000
S      -44.17530000     -36.03860000     -68.01190000
H      -45.92180000     -34.36600000     -67.60170000
