40
Properties=species:S:1:pos:R:3 #=T CELL(abcABC):=T 1.889726e+02=T 90.00000=T Traj:=T positionsangstrom=T Step:=T 0=T Bead:=T pbc="F F F"
C      -47.05360000     -29.67920000     -72.39290000
C      -47.86580000     -30.80490000     -72.13850000
C      -47.71930000     -31.96330000     -72.91950000
C      -46.76580000     -31.93640000     -73.96610000
C      -46.10380000     -30.76570000     -74.32400000
C      -46.22630000     -29.59400000     -73.49990000
H      -47.20690000     -28.77370000     -71.86470000
H      -48.27470000     -32.85190000     -72.68570000
H      -45.43990000     -30.74220000     -75.13890000
H      -45.66390000     -28.67980000     -73.67230000
C      -46.56400000     -33.08580000     -74.88720000
H      -45.94800000     -32.72050000     -75.72610000
H      -47.43050000     -33.55190000     -75.26700000
C      -48.69470000     -30.88400000     -70.87480000
H      -49.43060000     -30.08070000     -70.64210000
H      -49.19500000     -31.83250000     -70.90490000
S      -45.81110000     -34.63680000     -74.13760000
S      -47.55160000     -30.87070000     -69.42720000
C      -43.97030000     -34.39150000     -73.94850000
H      -43.65210000     -35.42430000     -74.04060000
H      -43.59790000     -33.82360000     -74.79860000
C      -46.80820000     -32.51620000     -69.08190000
H      -47.63010000     -33.19670000     -69.03570000
H      -46.58500000     -32.38830000     -67.99380000
C      -45.82280000     -32.90520000     -70.12440000
H      -46.34390000     -33.00080000     -71.03930000
H      -45.02780000     -32.16460000     -70.34060000
C      -43.54330000     -33.70570000     -72.66160000
H      -44.26420000     -33.00880000     -72.31540000
H      -42.66400000     -33.09380000     -72.79230000
C      -43.22390000     -34.62010000     -71.50370000
C      -42.09580000     -35.41330000     -71.60580000
C      -43.84580000     -34.65530000     -70.17670000
H      -41.45010000     -35.67420000     -72.46440000
C      -43.21680000     -35.61310000     -69.37710000
C      -45.08150000     -34.16680000     -69.68090000
C      -45.42430000     -34.79580000     -68.51060000
S      -41.74760000     -36.22230000     -70.12020000
S      -44.10640000     -35.79320000     -67.92970000
H      -46.14080000     -34.42390000     -67.77210000
