40
Properties=species:S:1:pos:R:3 #=T CELL(abcABC):=T 1.889726e+02=T 90.00000=T Traj:=T positionsangstrom=T Step:=T 0=T Bead:=T pbc="F F F"
C      -48.01790000     -34.91060000     -70.31750000
C      -48.35640000     -33.91650000     -71.19460000
C      -48.07300000     -34.11440000     -72.56870000
C      -47.51130000     -35.29510000     -73.00430000
C      -47.23970000     -36.38140000     -72.11590000
C      -47.50220000     -36.12070000     -70.76290000
H      -48.17940000     -34.68310000     -69.21880000
H      -48.22210000     -33.25460000     -73.30870000
H      -46.76750000     -37.30520000     -72.31120000
H      -47.33040000     -36.92510000     -70.02360000
C      -47.02290000     -35.48580000     -74.49370000
H      -47.87600000     -35.36420000     -75.16490000
H      -46.75690000     -36.48720000     -74.68510000
C      -49.24980000     -32.71030000     -70.98460000
H      -50.04090000     -32.58870000     -71.73850000
H      -49.87770000     -32.85290000     -70.10940000
S      -45.82380000     -34.18550000     -74.81260000
S      -48.48130000     -31.06140000     -70.74080000
C      -44.54930000     -34.41020000     -73.41230000
H      -45.05760000     -34.73590000     -72.48000000
H      -43.83360000     -35.24470000     -73.65160000
C      -46.87340000     -31.24950000     -69.83880000
H      -47.10210000     -31.81370000     -68.92500000
H      -46.52570000     -30.15860000     -69.47600000
C      -45.72380000     -31.77580000     -70.72080000
H      -46.12310000     -32.68370000     -71.28120000
H      -45.51220000     -31.03300000     -71.55780000
C      -43.75610000     -33.16080000     -73.23720000
H      -44.57990000     -32.31640000     -73.17460000
H      -43.12360000     -32.86630000     -74.08650000
C      -42.91060000     -33.17670000     -71.99660000
C      -41.71040000     -33.77280000     -71.97740000
C      -43.32960000     -32.76860000     -70.61670000
H      -41.30490000     -34.16400000     -72.90510000
C      -42.31640000     -32.98270000     -69.68040000
C      -44.47600000     -32.14580000     -69.96590000
C      -44.33760000     -31.97230000     -68.64560000
S      -40.86460000     -33.70370000     -70.44670000
S      -42.72280000     -32.36720000     -68.11520000
H      -44.94170000     -31.36590000     -68.01510000
