40
Properties=species:S:1:pos:R:3 #=T CELL(abcABC):=T 1.889726e+02=T 90.00000=T Traj:=T positionsangstrom=T Step:=T 0=T Bead:=T pbc="F F F"
C      -48.34720000     -34.95000000     -70.47130000
C      -48.52820000     -33.88330000     -71.33660000
C      -48.06870000     -34.07860000     -72.66250000
C      -47.28730000     -35.28060000     -73.07020000
C      -47.05820000     -36.29800000     -72.11990000
C      -47.62570000     -36.11390000     -70.84610000
H      -48.80390000     -35.01680000     -69.47120000
H      -48.38720000     -33.37520000     -73.39140000
H      -46.47990000     -37.22190000     -72.38520000
H      -47.58700000     -36.99270000     -70.18210000
C      -46.87380000     -35.55970000     -74.47940000
H      -47.64340000     -35.47470000     -75.24470000
H      -46.31920000     -36.54010000     -74.57310000
C      -49.40950000     -32.76510000     -70.85320000
H      -50.15090000     -32.55020000     -71.69780000
H      -49.66920000     -33.08830000     -69.84050000
S      -45.64210000     -34.26960000     -75.07270000
S      -48.44320000     -31.03990000     -70.66560000
C      -44.43010000     -34.40170000     -73.65880000
H      -44.81590000     -34.95380000     -72.84610000
H      -43.63250000     -34.90620000     -74.13690000
C      -46.96470000     -31.52580000     -69.60910000
H      -47.23720000     -32.50780000     -69.18160000
H      -46.84540000     -30.67510000     -68.96030000
C      -45.76030000     -31.75580000     -70.52710000
H      -45.99100000     -32.64920000     -71.14060000
H      -45.72640000     -30.94390000     -71.14280000
C      -44.00860000     -33.00610000     -73.14060000
H      -44.85470000     -32.35070000     -72.98780000
H      -43.49290000     -32.52110000     -73.95940000
C      -43.03180000     -33.07850000     -71.92790000
C      -41.83050000     -33.72030000     -71.96660000
C      -43.36630000     -32.65930000     -70.50740000
H      -41.39760000     -34.07440000     -72.84350000
C      -42.33670000     -32.92120000     -69.67520000
C      -44.39590000     -31.98520000     -69.83430000
C      -44.21030000     -31.82920000     -68.50260000
S      -40.98950000     -33.81680000     -70.42950000
S      -42.58020000     -32.34900000     -68.08970000
H      -44.79390000     -31.39610000     -67.71840000
