40
Properties=species:S:1:pos:R:3 #=T CELL(abcABC):=T 1.889726e+02=T 90.00000=T Traj:=T positionsangstrom=T Step:=T 0=T Bead:=T pbc="F F F"
C      -47.33080000     -29.73940000     -72.45160000
C      -47.88920000     -30.97800000     -72.07080000
C      -47.69070000     -32.17140000     -72.86520000
C      -46.94620000     -32.05530000     -74.03120000
C      -46.47710000     -30.78880000     -74.47870000
C      -46.66790000     -29.66070000     -73.66430000
H      -47.29510000     -28.87050000     -71.75540000
H      -48.09260000     -33.13520000     -72.64610000
H      -45.84460000     -30.72670000     -75.36110000
H      -46.27350000     -28.66820000     -74.09050000
C      -46.83380000     -33.32410000     -74.89940000
H      -46.50410000     -33.08120000     -75.93940000
H      -47.86920000     -33.60450000     -75.05560000
C      -48.72790000     -31.06920000     -70.85480000
H      -49.46520000     -30.25330000     -70.68970000
H      -49.34470000     -31.97840000     -70.86130000
S      -45.88820000     -34.66600000     -73.93020000
S      -47.68470000     -31.14690000     -69.34640000
C      -44.12820000     -33.98520000     -73.94870000
H      -43.58360000     -34.81170000     -74.21580000
H      -44.11710000     -33.23760000     -74.74140000
C      -47.02330000     -32.83690000     -69.07100000
H      -47.73680000     -33.69140000     -68.90330000
H      -46.46560000     -32.60810000     -68.23540000
C      -45.99630000     -33.29110000     -70.06610000
H      -46.46590000     -33.81880000     -70.92480000
H      -45.45270000     -32.44140000     -70.54660000
C      -43.77410000     -33.36320000     -72.62720000
H      -44.67850000     -32.88630000     -72.31480000
H      -43.08300000     -32.53560000     -72.80860000
C      -43.16130000     -34.28240000     -71.58160000
C      -41.99890000     -34.98890000     -71.69180000
C      -43.80250000     -34.55870000     -70.29400000
H      -41.29360000     -34.83790000     -72.52750000
C      -42.99630000     -35.44920000     -69.56920000
C      -44.88580000     -34.09140000     -69.46490000
C      -44.81370000     -34.56230000     -68.15920000
S      -41.49880000     -35.90750000     -70.24860000
S      -43.62380000     -35.91120000     -68.02820000
H      -45.63920000     -34.36950000     -67.45120000
