40
Properties=species:S:1:pos:R:3 #=T CELL(abcABC):=T 1.889726e+02=T 90.00000=T Traj:=T positionsangstrom=T Step:=T 0=T Bead:=T pbc="F F F"
C      -43.29760000     -30.68780000     -69.18130000
C      -44.70020000     -30.77710000     -68.93750000
C      -45.25470000     -31.82400000     -68.23560000
C      -44.39140000     -32.83420000     -67.69830000
C      -42.98490000     -32.71310000     -67.89770000
C      -42.44110000     -31.68630000     -68.60680000
H      -42.83220000     -29.80920000     -69.67980000
H      -46.34140000     -31.89180000     -68.20320000
H      -42.32420000     -33.43140000     -67.35020000
H      -41.40440000     -31.60560000     -68.76760000
C      -45.04620000     -34.03830000     -67.17500000
H      -46.15460000     -33.95440000     -67.08080000
H      -44.55150000     -34.27420000     -66.27980000
C      -45.59190000     -29.74980000     -69.46700000
H      -46.69890000     -29.97010000     -69.45350000
H      -45.43510000     -28.81300000     -68.98600000
S      -44.98780000     -35.54600000     -68.29150000
S      -45.29580000     -29.51030000     -71.36620000
C      -45.58770000     -35.01980000     -69.97040000
H      -46.45970000     -35.59000000     -70.17450000
H      -46.01000000     -34.02220000     -69.79400000
C      -45.28440000     -31.28280000     -72.13670000
H      -44.35290000     -31.74540000     -71.79280000
H      -45.02550000     -31.13200000     -73.16850000
C      -46.48580000     -32.23000000     -71.95880000
H      -46.26300000     -32.76110000     -71.02360000
H      -47.44910000     -31.65040000     -71.97730000
C      -44.48770000     -35.10850000     -71.04920000
H      -43.90810000     -35.94690000     -70.81750000
H      -43.92700000     -34.15270000     -70.97800000
C      -45.00330000     -35.32640000     -72.45910000
C      -44.72850000     -36.49740000     -73.13090000
C      -45.85760000     -34.47790000     -73.23260000
H      -44.15700000     -37.31740000     -72.73880000
C      -46.19650000     -35.11180000     -74.48160000
C      -46.54210000     -33.18750000     -73.10210000
C      -47.35380000     -32.93260000     -74.14510000
S      -45.40690000     -36.70320000     -74.71260000
S      -47.28330000     -34.12580000     -75.42350000
H      -47.87640000     -31.93110000     -74.15020000
