40
Properties=species:S:1:pos:R:3 #=T CELL(abcABC):=T 1.889726e+02=T 90.00000=T Traj:=T positionsangstrom=T Step:=T 0=T Bead:=T pbc="F F F"
C      -46.94340000     -29.41540000     -72.69470000
C      -47.59460000     -30.64090000     -72.41320000
C      -47.05620000     -31.74790000     -73.03310000
C      -46.10540000     -31.72500000     -74.00600000
C      -45.53160000     -30.49010000     -74.35850000
C      -45.89490000     -29.33130000     -73.63580000
H      -47.19610000     -28.53380000     -72.02480000
H      -47.33430000     -32.76870000     -72.74630000
H      -44.83190000     -30.37090000     -75.15500000
H      -45.54010000     -28.36340000     -74.03080000
C      -45.61080000     -33.00850000     -74.64560000
H      -44.80900000     -32.90490000     -75.44320000
H      -46.37890000     -33.59390000     -75.05140000
C      -48.54800000     -30.73440000     -71.21930000
H      -49.20630000     -29.84180000     -71.10230000
H      -49.22610000     -31.58350000     -71.22600000
S      -44.88360000     -34.11980000     -73.36740000
S      -47.55420000     -30.66810000     -69.69050000
C      -43.34800000     -33.11510000     -73.06030000
H      -42.51870000     -33.50640000     -73.59800000
H      -43.55730000     -32.12690000     -73.40030000
C      -47.14720000     -32.45120000     -69.32820000
H      -47.99760000     -33.09120000     -69.68080000
H      -47.05540000     -32.52840000     -68.23290000
C      -45.78190000     -32.86180000     -69.90430000
H      -45.57280000     -32.47810000     -70.88350000
H      -44.98530000     -32.34640000     -69.33680000
C      -42.97330000     -33.15500000     -71.63460000
H      -43.51640000     -32.37420000     -71.09360000
H      -41.95120000     -32.78410000     -71.64910000
C      -43.15150000     -34.47900000     -71.06940000
C      -42.19520000     -35.48420000     -71.21610000
C      -44.23430000     -34.93220000     -70.26610000
H      -41.28960000     -35.51190000     -71.76840000
C      -44.03140000     -36.21820000     -69.80210000
C      -45.47650000     -34.36670000     -69.74100000
C      -46.08970000     -35.24760000     -68.82980000
S      -42.52810000     -36.95070000     -70.32050000
S      -45.30660000     -36.74630000     -68.66250000
H      -46.93830000     -35.04810000     -68.23950000
