40
Properties=species:S:1:pos:R:3 #=T CELL(abcABC):=T 1.889726e+02=T 90.00000=T Traj:=T positionsangstrom=T Step:=T 0=T Bead:=T pbc="F F F"
C      -46.96670000     -29.66910000     -72.74980000
C      -47.53400000     -30.85790000     -72.28520000
C      -47.38570000     -32.06200000     -72.97530000
C      -46.48520000     -32.11210000     -74.07730000
C      -45.84400000     -30.87970000     -74.50900000
C      -46.12890000     -29.66730000     -73.85170000
H      -47.24660000     -28.78530000     -72.13200000
H      -47.87940000     -33.00600000     -72.65830000
H      -45.22130000     -30.85830000     -75.42350000
H      -45.64920000     -28.74150000     -74.06280000
C      -46.13680000     -33.45670000     -74.66720000
H      -45.73010000     -33.35910000     -75.69610000
H      -47.07620000     -34.00530000     -74.75090000
C      -48.28470000     -30.82020000     -70.98020000
H      -49.09280000     -29.99330000     -70.99050000
H      -48.80420000     -31.72130000     -70.85440000
S      -44.93370000     -34.31680000     -73.56750000
S      -47.38880000     -30.52300000     -69.37160000
C      -43.41670000     -33.35340000     -73.44920000
H      -42.59230000     -33.99380000     -73.77790000
H      -43.41910000     -32.45020000     -74.09570000
C      -46.66770000     -32.17320000     -68.77810000
H      -47.46760000     -32.84310000     -68.49010000
H      -46.02190000     -31.86840000     -67.91530000
C      -45.89110000     -32.83250000     -69.92330000
H      -46.55670000     -32.69320000     -70.79990000
H      -45.05960000     -32.14320000     -70.17620000
C      -43.15830000     -33.00110000     -71.99290000
H      -43.74870000     -32.19140000     -71.55270000
H      -42.14790000     -32.56220000     -71.95920000
C      -43.17990000     -34.27590000     -71.10930000
C      -42.18630000     -35.17750000     -71.33650000
C      -44.24100000     -34.75160000     -70.23100000
H      -41.27770000     -35.12460000     -71.83360000
C      -43.83640000     -35.97610000     -69.67040000
C      -45.41080000     -34.17680000     -69.61400000
C      -46.01750000     -35.06720000     -68.75590000
S      -42.41200000     -36.63340000     -70.36860000
S      -45.08120000     -36.62640000     -68.67900000
H      -46.84490000     -34.87970000     -68.04580000
