40
Properties=species:S:1:pos:R:3 #=T CELL(abcABC):=T 1.889726e+02=T 90.00000=T Traj:=T positionsangstrom=T Step:=T 0=T Bead:=T pbc="F F F"
C      -43.23350000     -33.37480000     -68.29480000
C      -44.52520000     -32.89200000     -68.16730000
C      -44.94050000     -31.66970000     -68.74430000
C      -44.01770000     -30.93170000     -69.54450000
C      -42.66910000     -31.37250000     -69.64420000
C      -42.33650000     -32.62720000     -69.09620000
H      -43.02600000     -34.29600000     -67.73580000
H      -45.89960000     -31.34280000     -68.56900000
H      -41.91380000     -30.82510000     -70.22750000
H      -41.26220000     -32.92490000     -69.16800000
C      -44.35460000     -29.57480000     -70.00050000
H      -43.53050000     -29.18820000     -70.64840000
H      -44.50260000     -28.86230000     -69.23610000
C      -45.49970000     -33.65690000     -67.20910000
H      -44.96050000     -34.29480000     -66.57160000
H      -45.92400000     -32.94270000     -66.50380000
S      -45.79180000     -29.40810000     -71.13620000
S      -46.95520000     -34.58330000     -68.00070000
C      -45.42030000     -30.60860000     -72.56270000
H      -46.02580000     -30.30630000     -73.38360000
H      -44.40110000     -30.42570000     -72.86450000
C      -46.20630000     -35.11920000     -69.65240000
H      -45.89140000     -36.24470000     -69.63110000
H      -45.32130000     -34.52540000     -69.67320000
C      -47.11050000     -34.76610000     -70.82050000
H      -48.06100000     -35.29540000     -70.71630000
H      -47.37280000     -33.71410000     -70.79470000
C      -45.62570000     -32.12640000     -72.23880000
H      -46.70560000     -32.23170000     -71.91530000
H      -45.03620000     -32.48190000     -71.38540000
C      -45.35690000     -33.20650000     -73.26980000
C      -44.71070000     -32.97450000     -74.47310000
C      -45.85420000     -34.53780000     -73.15630000
H      -44.27410000     -31.99630000     -74.81100000
C      -45.42410000     -35.33790000     -74.14890000
C      -46.58070000     -35.25130000     -72.19820000
C      -46.71780000     -36.57920000     -72.52670000
S      -44.56750000     -34.50930000     -75.43900000
S      -45.90150000     -36.98650000     -74.03330000
H      -47.11610000     -37.40080000     -71.91450000
