40
Properties=species:S:1:pos:R:3 #=T CELL(abcABC):=T 1.889726e+02=T 90.00000=T Traj:=T positionsangstrom=T Step:=T 0=T Bead:=T pbc="F F F"
C      -46.57830000     -29.23070000     -72.70380000
C      -47.34250000     -30.37510000     -72.45210000
C      -46.89140000     -31.58730000     -73.11450000
C      -45.79510000     -31.62150000     -74.06590000
C      -45.09860000     -30.38760000     -74.22980000
C      -45.57140000     -29.25340000     -73.58100000
H      -46.99740000     -28.28780000     -72.36590000
H      -47.45210000     -32.51020000     -72.97990000
H      -44.26470000     -30.39700000     -74.93390000
H      -45.11870000     -28.25850000     -73.77490000
C      -45.36680000     -32.91530000     -74.69220000
H      -44.60540000     -32.70820000     -75.48450000
H      -46.15900000     -33.50050000     -75.06220000
C      -48.42880000     -30.35890000     -71.47460000
H      -48.77430000     -29.30340000     -71.24380000
H      -49.23910000     -30.99490000     -71.81610000
S      -44.64850000     -34.18560000     -73.58230000
S      -47.98720000     -30.91860000     -69.72250000
C      -43.04570000     -33.46460000     -73.08860000
H      -42.27460000     -34.22580000     -73.15890000
H      -42.93630000     -32.62570000     -73.75430000
C      -47.43970000     -32.65490000     -69.54460000
H      -48.09910000     -33.42020000     -69.89960000
H      -47.63510000     -32.79240000     -68.45620000
C      -46.06050000     -33.02230000     -69.96990000
H      -46.14260000     -33.09830000     -71.06460000
H      -45.33250000     -32.20690000     -69.74020000
C      -43.05100000     -33.11640000     -71.60480000
H      -43.87240000     -32.41900000     -71.49710000
H      -42.15490000     -32.52700000     -71.44430000
C      -43.17430000     -34.37000000     -70.78930000
C      -42.27970000     -35.33940000     -71.01430000
C      -44.26890000     -34.82910000     -69.92680000
H      -41.33980000     -35.28040000     -71.58840000
C      -44.09190000     -36.19160000     -69.58970000
C      -45.56610000     -34.35820000     -69.43580000
C      -46.29240000     -35.28580000     -68.81100000
S      -42.69310000     -36.92090000     -70.31790000
S      -45.46500000     -36.85320000     -68.64600000
H      -47.26090000     -35.10700000     -68.31790000
