40
Properties=species:S:1:pos:R:3 #=T CELL(abcABC):=T 1.889726e+02=T 90.00000=T Traj:=T positionsangstrom=T Step:=T 0=T Bead:=T pbc="F F F"
C      -46.54040000     -29.50710000     -72.61030000
C      -47.14980000     -30.75910000     -72.51620000
C      -46.75180000     -31.85710000     -73.30140000
C      -45.70280000     -31.66690000     -74.20810000
C      -44.93460000     -30.45440000     -74.18370000
C      -45.37550000     -29.42340000     -73.44420000
H      -46.78580000     -28.70200000     -71.86750000
H      -47.33110000     -32.79540000     -73.30930000
H      -44.06290000     -30.32340000     -74.85640000
H      -44.81450000     -28.54810000     -73.41120000
C      -45.39900000     -32.90750000     -75.00250000
H      -44.71260000     -32.74870000     -75.78180000
H      -46.31990000     -33.51760000     -75.44690000
C      -48.33440000     -30.88150000     -71.63160000
H      -49.02160000     -30.11880000     -71.96870000
H      -48.78680000     -31.85560000     -71.75030000
S      -44.65830000     -34.28780000     -73.98410000
S      -47.99520000     -30.74130000     -69.82800000
C      -43.15540000     -33.33680000     -73.14220000
H      -42.23580000     -33.90360000     -73.45440000
H      -43.08590000     -32.39930000     -73.71680000
C      -47.48290000     -32.51080000     -69.45440000
H      -48.31480000     -33.13140000     -69.85810000
H      -47.48840000     -32.54640000     -68.34550000
C      -46.11730000     -32.91660000     -70.03760000
H      -46.10140000     -32.94430000     -71.14650000
H      -45.36640000     -32.21640000     -69.72950000
C      -43.29640000     -33.15960000     -71.65460000
H      -44.12640000     -32.57340000     -71.37290000
H      -42.39980000     -32.59240000     -71.42050000
C      -43.27610000     -34.43080000     -70.81990000
C      -42.28280000     -35.37530000     -70.84570000
C      -44.36840000     -34.77000000     -69.93020000
H      -41.37640000     -35.27060000     -71.36380000
C      -44.12290000     -36.00610000     -69.36990000
C      -45.69490000     -34.28880000     -69.58800000
C      -46.41410000     -35.20830000     -68.89250000
S      -42.57060000     -36.68030000     -69.70490000
S      -45.54610000     -36.70860000     -68.52550000
H      -47.40480000     -35.03390000     -68.49070000
