40
Properties=species:S:1:pos:R:3 #=T CELL(abcABC):=T 1.889726e+02=T 90.00000=T Traj:=T positionsangstrom=T Step:=T 0=T Bead:=T pbc="F F F"
C      -46.60930000     -29.34020000     -72.66420000
C      -47.32770000     -30.53060000     -72.40810000
C      -46.86620000     -31.67880000     -73.16250000
C      -45.76420000     -31.67400000     -74.08660000
C      -45.05310000     -30.45990000     -74.17810000
C      -45.50570000     -29.34040000     -73.50290000
H      -46.81290000     -28.43720000     -72.07400000
H      -47.43170000     -32.62160000     -73.13430000
H      -44.10810000     -30.44740000     -74.75000000
H      -44.92990000     -28.46590000     -73.54140000
C      -45.37870000     -32.97810000     -74.85840000
H      -44.58460000     -32.75650000     -75.54940000
H      -46.17980000     -33.38660000     -75.50370000
C      -48.49070000     -30.80020000     -71.52880000
H      -49.18940000     -29.94080000     -71.70880000
H      -48.99300000     -31.71450000     -71.79120000
S      -44.76190000     -34.23450000     -73.55760000
S      -47.89470000     -30.74140000     -69.76820000
C      -43.27760000     -33.15300000     -73.02600000
H      -42.44400000     -33.65310000     -73.53820000
H      -43.18040000     -32.21390000     -73.49010000
C      -47.51410000     -32.62890000     -69.54090000
H      -48.17500000     -33.25360000     -70.19710000
H      -47.62940000     -32.86400000     -68.47300000
C      -46.12780000     -32.88410000     -69.92230000
H      -45.99380000     -32.67060000     -70.95680000
H      -45.42510000     -32.24360000     -69.42640000
C      -43.12840000     -33.05760000     -71.54880000
H      -43.92070000     -32.50280000     -71.04190000
H      -42.20050000     -32.64190000     -71.22900000
C      -43.15210000     -34.41990000     -70.80990000
C      -42.15060000     -35.33010000     -70.92660000
C      -44.36190000     -34.90880000     -70.16350000
H      -41.16430000     -35.20720000     -71.28980000
C      -44.13610000     -36.21940000     -69.69290000
C      -45.58990000     -34.31580000     -69.60840000
C      -46.28280000     -35.23850000     -68.89700000
S      -42.57390000     -36.86740000     -70.11210000
S      -45.42480000     -36.79690000     -68.68120000
H      -47.25100000     -35.11010000     -68.43190000
