40
Properties=species:S:1:pos:R:3 #=T CELL(abcABC):=T 1.889726e+02=T 90.00000=T Traj:=T positionsangstrom=T Step:=T 0=T Bead:=T pbc="F F F"
C      -43.16900000     -37.20270000     -70.80260000
C      -43.02990000     -35.96110000     -70.16120000
C      -42.55750000     -34.80510000     -70.82940000
C      -42.25070000     -34.86780000     -72.22040000
C      -42.52180000     -36.14230000     -72.76120000
C      -43.01320000     -37.27100000     -72.19610000
H      -43.42570000     -38.02070000     -70.15780000
H      -42.44020000     -33.89330000     -70.29700000
H      -42.37160000     -36.24170000     -73.85360000
H      -43.08630000     -38.23450000     -72.69110000
C      -41.80330000     -33.73010000     -73.07290000
H      -40.90500000     -33.98290000     -73.61620000
H      -41.52530000     -32.88300000     -72.51840000
C      -43.36910000     -35.74370000     -68.70940000
H      -43.33300000     -36.76910000     -68.28880000
H      -42.58770000     -35.24540000     -68.16980000
S      -43.17120000     -33.34820000     -74.31810000
S      -44.98310000     -34.78490000     -68.51690000
C      -44.19840000     -32.05160000     -73.29900000
H      -43.94000000     -32.22350000     -72.24410000
H      -43.86000000     -31.00460000     -73.51920000
C      -46.07290000     -35.41080000     -69.87870000
H      -47.13250000     -35.49070000     -69.52010000
H      -45.79520000     -36.39350000     -70.31870000
C      -46.07810000     -34.36310000     -71.00240000
H      -45.01670000     -33.88200000     -71.30580000
H      -46.36180000     -34.68230000     -71.98090000
C      -45.67860000     -32.35130000     -73.60130000
H      -45.83840000     -33.44020000     -73.49500000
H      -45.95050000     -32.28770000     -74.67910000
C      -46.65240000     -31.51690000     -72.69140000
C      -47.06180000     -30.25500000     -73.05020000
C      -47.11010000     -31.96490000     -71.39260000
H      -47.07460000     -29.82530000     -74.07200000
C      -47.97350000     -31.03800000     -70.82240000
C      -46.94010000     -33.19480000     -70.59920000
C      -47.60800000     -33.04690000     -69.40570000
S      -48.18710000     -29.53660000     -71.77470000
S      -48.58550000     -31.54660000     -69.23210000
H      -47.80640000     -33.77170000     -68.61660000
