40
Properties=species:S:1:pos:R:3 #=T CELL(abcABC):=T 1.889726e+02=T 90.00000=T Traj:=T positionsangstrom=T Step:=T 0=T Bead:=T pbc="F F F"
C      -46.37630000     -29.95040000     -73.15080000
C      -47.01900000     -31.15040000     -72.83820000
C      -46.68320000     -32.29060000     -73.57510000
C      -45.73690000     -32.26470000     -74.60770000
C      -45.10510000     -31.10640000     -74.94350000
C      -45.47870000     -29.97020000     -74.21140000
H      -46.67320000     -29.03770000     -72.63080000
H      -47.26520000     -33.19010000     -73.40550000
H      -44.62870000     -30.96820000     -75.86250000
H      -44.91940000     -29.08140000     -74.49050000
C      -45.31070000     -33.54130000     -75.29430000
H      -44.64940000     -33.31890000     -76.14110000
H      -46.22710000     -34.00160000     -75.69290000
C      -48.10000000     -31.20910000     -71.77800000
H      -48.94160000     -30.59420000     -72.10790000
H      -48.35530000     -32.29290000     -71.63070000
S      -44.47680000     -34.74870000     -74.07880000
S      -47.72130000     -30.42230000     -70.07760000
C      -43.17070000     -33.63590000     -73.31290000
H      -42.26020000     -34.25210000     -73.34870000
H      -43.00160000     -32.72730000     -73.88270000
C      -47.19740000     -31.87380000     -69.05480000
H      -47.86300000     -32.74700000     -69.19410000
H      -47.34220000     -31.60300000     -68.01010000
C      -45.80940000     -32.27220000     -69.42530000
H      -45.65970000     -32.25200000     -70.55160000
H      -44.98620000     -31.60010000     -68.97200000
C      -43.50610000     -33.25680000     -71.84790000
H      -44.31990000     -32.55490000     -71.87810000
H      -42.64630000     -32.72950000     -71.51770000
C      -43.77520000     -34.44790000     -70.93470000
C      -42.97420000     -35.57450000     -71.03930000
C      -44.59910000     -34.54340000     -69.73150000
H      -42.27350000     -35.71690000     -71.85690000
C      -44.40710000     -35.77280000     -69.13700000
C      -45.45700000     -33.65940000     -68.94260000
C      -45.95980000     -34.32390000     -67.85810000
S      -43.16680000     -36.72140000     -69.80950000
S      -45.34170000     -35.96820000     -67.65170000
H      -46.57290000     -33.79970000     -67.12110000
