40
Properties=species:S:1:pos:R:3 #=T CELL(abcABC):=T 1.889726e+02=T 90.00000=T Traj:=T positionsangstrom=T Step:=T 0=T Bead:=T pbc="F F F"
C      -46.39190000     -29.61980000     -72.65070000
C      -47.14230000     -30.85890000     -72.61760000
C      -46.85890000     -31.93870000     -73.49790000
C      -45.70690000     -31.74260000     -74.36760000
C      -45.01870000     -30.52900000     -74.37140000
C      -45.37210000     -29.44330000     -73.51320000
H      -46.85600000     -28.80280000     -72.09050000
H      -47.38660000     -32.89280000     -73.46870000
H      -44.23950000     -30.38360000     -75.11340000
H      -44.89210000     -28.46400000     -73.53620000
C      -45.20910000     -32.91050000     -75.12870000
H      -44.34420000     -32.64930000     -75.75480000
H      -45.91840000     -33.29450000     -75.87900000
C      -48.35630000     -30.92800000     -71.69360000
H      -48.88860000     -29.99720000     -71.89530000
H      -49.03680000     -31.76650000     -71.91440000
S      -44.66600000     -34.20560000     -73.86680000
S      -48.00670000     -30.79010000     -69.86320000
C      -43.11530000     -33.51720000     -73.15610000
H      -42.37400000     -34.30400000     -73.22040000
H      -42.79190000     -32.55800000     -73.70570000
C      -47.58020000     -32.46220000     -69.32130000
H      -48.28860000     -33.17180000     -69.69800000
H      -47.60580000     -32.54650000     -68.20850000
C      -46.15630000     -32.84790000     -69.83870000
H      -46.19560000     -32.66660000     -70.92410000
H      -45.37670000     -32.15760000     -69.42660000
C      -43.24930000     -33.12490000     -71.69690000
H      -44.13280000     -32.47650000     -71.59870000
H      -42.36020000     -32.49300000     -71.35520000
C      -43.27180000     -34.42890000     -70.84820000
C      -42.20590000     -35.28370000     -70.76500000
C      -44.41430000     -34.80710000     -70.04850000
H      -41.31660000     -35.21370000     -71.33580000
C      -44.16630000     -36.03310000     -69.40190000
C      -45.75460000     -34.27840000     -69.53310000
C      -46.43460000     -35.10530000     -68.70870000
S      -42.62330000     -36.68160000     -69.74660000
S      -45.48390000     -36.60890000     -68.36760000
H      -47.36150000     -34.81840000     -68.20720000
