40
Properties=species:S:1:pos:R:3 #=T CELL(abcABC):=T 1.889726e+02=T 90.00000=T Traj:=T positionsangstrom=T Step:=T 0=T Bead:=T pbc="F F F"
C      -46.33180000     -30.04980000     -73.06640000
C      -47.03250000     -31.25770000     -72.71660000
C      -46.70310000     -32.43650000     -73.47800000
C      -45.78850000     -32.36470000     -74.53440000
C      -45.18280000     -31.14820000     -74.78960000
C      -45.42160000     -30.00100000     -74.10130000
H      -46.73700000     -29.15430000     -72.62610000
H      -47.09870000     -33.42940000     -73.13120000
H      -44.44110000     -31.06270000     -75.57420000
H      -44.83920000     -29.06140000     -74.33280000
C      -45.36040000     -33.66190000     -75.31250000
H      -44.82640000     -33.42450000     -76.25040000
H      -46.21550000     -34.29940000     -75.51140000
C      -48.10920000     -31.39590000     -71.71490000
H      -49.03390000     -30.95470000     -72.05310000
H      -48.35660000     -32.41920000     -71.39500000
S      -44.33700000     -34.75750000     -74.24600000
S      -47.67270000     -30.33710000     -70.17810000
C      -43.31120000     -33.61040000     -73.26860000
H      -42.29140000     -34.03310000     -73.15130000
H      -43.19580000     -32.64870000     -73.81050000
C      -47.07580000     -31.66310000     -69.01460000
H      -47.73070000     -32.50300000     -69.15940000
H      -47.14280000     -31.26440000     -68.00680000
C      -45.70050000     -32.14220000     -69.43130000
H      -45.66170000     -32.10030000     -70.51670000
H      -44.95750000     -31.48290000     -69.11060000
C      -43.82160000     -33.34020000     -71.86390000
H      -44.99020000     -33.32130000     -71.86990000
H      -43.58600000     -32.33800000     -71.49060000
C      -43.64930000     -34.48190000     -70.89490000
C      -42.85990000     -35.59780000     -71.13880000
C      -44.40730000     -34.48100000     -69.64180000
H      -42.28720000     -35.88960000     -72.06160000
C      -44.29830000     -35.69120000     -69.01620000
C      -45.35750000     -33.55640000     -68.96380000
C      -46.03040000     -34.16820000     -67.96140000
S      -43.23460000     -36.84980000     -69.85430000
S      -45.49480000     -35.81870000     -67.65580000
H      -46.82790000     -33.74670000     -67.39360000
