40
Properties=species:S:1:pos:R:3 #=T CELL(abcABC):=T 1.889726e+02=T 90.00000=T Traj:=T positionsangstrom=T Step:=T 0=T Bead:=T pbc="F F F"
C      -46.49330000     -29.56330000     -72.68570000
C      -47.20780000     -30.76680000     -72.68630000
C      -46.89260000     -31.88650000     -73.50790000
C      -45.71700000     -31.76020000     -74.30890000
C      -45.01400000     -30.56390000     -74.31300000
C      -45.36930000     -29.49110000     -73.47100000
H      -46.77470000     -28.80090000     -71.99370000
H      -47.56820000     -32.71360000     -73.45600000
H      -44.10350000     -30.51000000     -74.90650000
H      -44.63860000     -28.65040000     -73.46920000
C      -45.18230000     -32.97530000     -75.02490000
H      -44.29130000     -32.64570000     -75.57620000
H      -45.95420000     -33.22350000     -75.64990000
C      -48.38410000     -31.03330000     -71.77520000
H      -49.21970000     -30.39900000     -71.96810000
H      -48.74050000     -32.07480000     -71.75830000
S      -44.67470000     -34.33060000     -73.84380000
S      -48.02960000     -30.66090000     -69.96690000
C      -43.11860000     -33.56120000     -73.20010000
H      -42.28900000     -34.12860000     -73.54040000
H      -43.01660000     -32.61880000     -73.75540000
C      -47.51680000     -32.40480000     -69.40280000
H      -48.34950000     -33.07860000     -69.58430000
H      -47.40870000     -32.33620000     -68.32280000
C      -46.21050000     -32.90830000     -70.02160000
H      -46.30270000     -33.06190000     -71.07200000
H      -45.48320000     -32.06550000     -69.87140000
C      -43.15910000     -33.19140000     -71.69250000
H      -44.03870000     -32.45940000     -71.55580000
H      -42.36820000     -32.49870000     -71.45760000
C      -43.28290000     -34.42120000     -70.76830000
C      -42.28870000     -35.36290000     -70.82260000
C      -44.37660000     -34.78700000     -69.94730000
H      -41.28710000     -35.38490000     -71.25640000
C      -44.14650000     -36.02030000     -69.30330000
C      -45.61920000     -34.20180000     -69.44190000
C      -46.27080000     -35.03430000     -68.58100000
S      -42.63660000     -36.72770000     -69.83360000
S      -45.50660000     -36.51340000     -68.27690000
H      -47.22270000     -34.82740000     -68.12720000
