40
Properties=species:S:1:pos:R:3 #=T CELL(abcABC):=T 1.889726e+02=T 90.00000=T Traj:=T positionsangstrom=T Step:=T 0=T Bead:=T pbc="F F F"
C      -46.37240000     -30.10880000     -72.95070000
C      -47.08860000     -31.25100000     -72.65510000
C      -46.73750000     -32.40650000     -73.43550000
C      -45.74070000     -32.38240000     -74.44960000
C      -45.13930000     -31.15170000     -74.68160000
C      -45.41190000     -30.08190000     -73.95810000
H      -46.41660000     -29.31090000     -72.24600000
H      -47.34780000     -33.29090000     -73.23870000
H      -44.29120000     -31.10470000     -75.40820000
H      -44.95320000     -29.09370000     -74.07530000
C      -45.45130000     -33.66930000     -75.21430000
H      -45.03000000     -33.40960000     -76.17500000
H      -46.29080000     -34.29330000     -75.51440000
C      -48.06100000     -31.22120000     -71.60060000
H      -48.95840000     -30.85640000     -72.11630000
H      -48.25090000     -32.28490000     -71.33720000
S      -44.19830000     -34.85550000     -74.41310000
S      -47.70950000     -30.23950000     -70.14920000
C      -43.13520000     -33.75450000     -73.41850000
H      -42.20140000     -34.29170000     -73.36750000
H      -42.88660000     -32.87330000     -74.04670000
C      -46.95260000     -31.49290000     -69.00920000
H      -47.80880000     -32.19130000     -68.86030000
H      -46.73670000     -30.99810000     -68.01380000
C      -45.68240000     -32.14640000     -69.54890000
H      -45.79190000     -32.16850000     -70.68370000
H      -44.78590000     -31.47510000     -69.39800000
C      -43.61240000     -33.45160000     -72.00790000
H      -44.58500000     -33.07010000     -72.13310000
H      -42.98430000     -32.68700000     -71.59480000
C      -43.79550000     -34.61040000     -71.04340000
C      -43.09460000     -35.78690000     -71.10640000
C      -44.53560000     -34.49810000     -69.79680000
H      -42.42880000     -36.02640000     -71.93990000
C      -44.42730000     -35.63450000     -69.00120000
C      -45.43020000     -33.52170000     -69.06450000
C      -46.01040000     -34.10130000     -67.96310000
S      -43.36630000     -36.84380000     -69.74310000
S      -45.42880000     -35.74200000     -67.62750000
H      -46.80340000     -33.66830000     -67.38340000
