40
Properties=species:S:1:pos:R:3 #=T CELL(abcABC):=T 1.889726e+02=T 90.00000=T Traj:=T positionsangstrom=T Step:=T 0=T Bead:=T pbc="F F F"
C      -48.29570000     -32.77630000     -68.25500000
C      -47.97000000     -32.23600000     -69.49240000
C      -48.13070000     -32.96540000     -70.67670000
C      -48.46040000     -34.40790000     -70.58480000
C      -48.65990000     -34.93870000     -69.30450000
C      -48.67310000     -34.13720000     -68.19640000
H      -48.50960000     -32.11230000     -67.35610000
H      -47.90460000     -32.51020000     -71.61710000
H      -48.96190000     -35.98210000     -69.21730000
H      -49.01890000     -34.53470000     -67.23750000
C      -48.75290000     -35.22210000     -71.83860000
H      -48.99880000     -34.58930000     -72.66200000
H      -49.69860000     -35.83990000     -71.61140000
C      -47.57640000     -30.74780000     -69.51560000
H      -48.49320000     -30.12980000     -69.34540000
H      -46.92010000     -30.58510000     -68.65530000
S      -47.51530000     -36.53190000     -72.39770000
S      -46.91140000     -30.13060000     -71.12400000
C      -45.81490000     -35.98000000     -72.17010000
H      -45.38570000     -36.37130000     -71.25030000
H      -45.28320000     -36.57610000     -72.88790000
C      -45.24240000     -30.91030000     -71.45970000
H      -44.56500000     -30.04720000     -71.49400000
H      -45.25080000     -31.22070000     -72.46230000
C      -44.74910000     -31.83640000     -70.43610000
H      -44.71200000     -31.35670000     -69.46070000
H      -45.44730000     -32.68260000     -70.38370000
C      -45.46590000     -34.55330000     -72.33800000
H      -45.82460000     -34.06640000     -71.45350000
H      -46.04140000     -34.12790000     -73.19040000
C      -43.98010000     -34.27340000     -72.57910000
C      -43.26040000     -35.11430000     -73.36970000
C      -43.17820000     -33.26530000     -71.99540000
H      -43.53840000     -36.06040000     -73.95820000
C      -41.78610000     -33.43920000     -72.23920000
C      -43.38020000     -32.26300000     -70.93480000
C      -42.24010000     -31.61070000     -70.50830000
S      -41.54730000     -34.67050000     -73.45170000
S      -40.81290000     -32.30370000     -71.32390000
H      -42.07120000     -30.87270000     -69.68710000
