40
Properties=species:S:1:pos:R:3 #=T CELL(abcABC):=T 1.889726e+02=T 90.00000=T Traj:=T positionsangstrom=T Step:=T 0=T Bead:=T pbc="F F F"
C      -48.30180000     -32.98940000     -68.28900000
C      -48.06160000     -32.37020000     -69.51070000
C      -48.22580000     -33.10460000     -70.71970000
C      -48.52280000     -34.52330000     -70.70090000
C      -48.66700000     -35.12040000     -69.45970000
C      -48.45710000     -34.38040000     -68.27310000
H      -48.05810000     -32.42670000     -67.39210000
H      -48.21850000     -32.52240000     -71.64800000
H      -48.80390000     -36.24230000     -69.33350000
H      -48.49450000     -34.92920000     -67.37270000
C      -48.75140000     -35.14110000     -72.05690000
H      -48.78340000     -34.42990000     -72.86740000
H      -49.73720000     -35.63950000     -72.15620000
C      -47.76830000     -30.82410000     -69.46060000
H      -48.77240000     -30.37550000     -69.46980000
H      -47.25670000     -30.47240000     -68.52170000
S      -47.62360000     -36.49200000     -72.57180000
S      -46.93780000     -29.98300000     -70.87890000
C      -45.74400000     -36.01410000     -72.24500000
H      -45.38380000     -36.42910000     -71.27200000
H      -45.18790000     -36.55480000     -73.13880000
C      -45.43510000     -31.04150000     -71.34300000
H      -44.79560000     -30.37410000     -71.94520000
H      -45.71450000     -31.90760000     -72.00080000
C      -44.61360000     -31.68200000     -70.23030000
H      -44.40210000     -30.95400000     -69.43680000
H      -45.17900000     -32.56230000     -69.77100000
C      -45.47270000     -34.57030000     -72.38060000
H      -45.78220000     -33.98330000     -71.55270000
H      -45.93210000     -34.21240000     -73.29730000
C      -43.95010000     -34.30590000     -72.52540000
C      -43.18740000     -34.94320000     -73.45350000
C      -43.13820000     -33.35210000     -71.74360000
H      -43.67010000     -35.59570000     -74.20560000
C      -41.80120000     -33.47310000     -72.11140000
C      -43.33910000     -32.28740000     -70.73660000
C      -42.14290000     -31.65870000     -70.52050000
S      -41.46290000     -34.50490000     -73.45560000
S      -40.79190000     -32.21930000     -71.40100000
H      -41.96000000     -30.81200000     -69.83040000
