40
Properties=species:S:1:pos:R:3 #=T CELL(abcABC):=T 1.889726e+02=T 90.00000=T Traj:=T positionsangstrom=T Step:=T 0=T Bead:=T pbc="F F F"
C      -48.26610000     -32.40500000     -68.45320000
C      -48.00530000     -31.97560000     -69.73810000
C      -48.18110000     -32.89600000     -70.77300000
C      -48.71950000     -34.15300000     -70.52200000
C      -48.95470000     -34.56060000     -69.23370000
C      -48.81210000     -33.67250000     -68.16450000
H      -48.05340000     -31.76060000     -67.59040000
H      -48.01130000     -32.62790000     -71.79030000
H      -49.22260000     -35.58150000     -69.00680000
H      -48.77380000     -33.97480000     -67.15650000
C      -48.79120000     -35.10820000     -71.69010000
H      -48.81600000     -34.58250000     -72.67790000
H      -49.69230000     -35.68510000     -71.65670000
C      -47.71920000     -30.50930000     -69.97670000
H      -48.73390000     -29.97280000     -70.06740000
H      -47.27690000     -30.06470000     -69.07980000
S      -47.41860000     -36.32280000     -71.53430000
S      -46.90060000     -29.97040000     -71.49550000
C      -45.87180000     -35.24610000     -71.44650000
H      -46.09880000     -34.30630000     -70.94800000
H      -45.23510000     -35.89210000     -70.91370000
C      -45.67690000     -31.26740000     -71.86690000
H      -45.03070000     -30.76050000     -72.59260000
H      -46.17630000     -32.12950000     -72.37240000
C      -44.81940000     -31.86260000     -70.69830000
H      -44.57820000     -31.05010000     -69.95560000
H      -45.28070000     -32.68980000     -70.14620000
C      -45.31720000     -34.92960000     -72.82610000
H      -45.71350000     -33.98310000     -73.18670000
H      -45.45080000     -35.66860000     -73.63410000
C      -43.77980000     -34.70470000     -72.66730000
C      -42.93200000     -35.53790000     -73.35100000
C      -43.12560000     -33.54750000     -72.04730000
H      -43.28520000     -36.36070000     -73.85240000
C      -41.75940000     -33.73930000     -72.18600000
C      -43.46500000     -32.27770000     -71.37350000
C      -42.33540000     -31.60060000     -70.99320000
S      -41.26160000     -35.16720000     -72.98970000
S      -40.83090000     -32.49090000     -71.39200000
H      -42.22860000     -30.71340000     -70.30340000
