40
Properties=species:S:1:pos:R:3 #=T CELL(abcABC):=T 1.889726e+02=T 90.00000=T Traj:=T positionsangstrom=T Step:=T 0=T Bead:=T pbc="F F F"
C      -43.24770000     -37.11560000     -71.01590000
C      -43.06100000     -35.95030000     -70.32790000
C      -42.67880000     -34.75140000     -71.00330000
C      -42.45300000     -34.76590000     -72.35180000
C      -42.83280000     -35.90790000     -73.07950000
C      -43.06800000     -37.11810000     -72.40390000
H      -43.45900000     -38.07640000     -70.55410000
H      -42.66340000     -33.84720000     -70.38470000
H      -42.75600000     -35.93560000     -74.14110000
H      -43.27700000     -38.06920000     -72.94980000
C      -41.79300000     -33.59040000     -73.10000000
H      -40.83370000     -33.80990000     -73.59550000
H      -41.71450000     -32.83280000     -72.24860000
C      -43.36890000     -36.01820000     -68.89900000
H      -43.42260000     -37.04230000     -68.59020000
H      -42.59920000     -35.56230000     -68.32270000
S      -43.06050000     -32.91170000     -74.24710000
S      -44.86450000     -35.24030000     -68.23480000
C      -44.39330000     -32.28240000     -73.09290000
H      -44.23410000     -32.86130000     -72.17920000
H      -44.18530000     -31.22680000     -72.91200000
C      -46.15530000     -35.34940000     -69.50080000
H      -47.04780000     -35.10150000     -68.90540000
H      -46.13420000     -36.35980000     -69.98160000
C      -46.12910000     -34.37830000     -70.72050000
H      -45.13770000     -34.15700000     -70.95300000
H      -46.56540000     -34.77250000     -71.69070000
C      -45.76550000     -32.53860000     -73.66410000
H      -45.91070000     -33.66490000     -73.67450000
H      -45.89490000     -32.04250000     -74.64010000
C      -46.71570000     -31.79610000     -72.73610000
C      -47.29900000     -30.63340000     -73.21410000
C      -47.09870000     -32.02720000     -71.36770000
H      -47.05630000     -30.04480000     -74.07580000
C      -47.81520000     -30.96800000     -70.81050000
C      -46.83840000     -33.10240000     -70.42770000
C      -47.45770000     -32.80010000     -69.25320000
S      -48.15640000     -29.71480000     -71.98540000
S      -48.38250000     -31.27240000     -69.23770000
H      -47.39170000     -33.21230000     -68.26030000
