40
Properties=species:S:1:pos:R:3 #=T CELL(abcABC):=T 1.889726e+02=T 90.00000=T Traj:=T positionsangstrom=T Step:=T 0=T Bead:=T pbc="F F F"
C      -47.99700000     -30.93210000     -69.12900000
C      -47.97540000     -31.12640000     -70.52710000
C      -48.17710000     -32.41020000     -71.00740000
C      -48.34150000     -33.53970000     -70.14120000
C      -48.32210000     -33.25450000     -68.75360000
C      -48.10370000     -31.99880000     -68.26020000
H      -47.87940000     -29.91780000     -68.77250000
H      -47.98260000     -32.68750000     -72.04350000
H      -48.46500000     -34.02210000     -67.99270000
H      -48.10350000     -31.85440000     -67.15900000
C      -48.67700000     -34.95460000     -70.57900000
H      -48.83930000     -34.98490000     -71.70470000
H      -49.63320000     -35.29640000     -70.16990000
C      -47.87260000     -29.92300000     -71.47550000
H      -48.85190000     -29.75620000     -71.94290000
H      -47.51990000     -29.02390000     -70.96430000
S      -47.51910000     -36.29250000     -69.98610000
S      -46.61490000     -30.29460000     -72.81050000
C      -45.87960000     -35.51060000     -70.31420000
H      -45.79480000     -34.53950000     -69.80080000
H      -45.11500000     -36.14530000     -69.95610000
C      -45.13220000     -30.63780000     -71.80150000
H      -45.22270000     -30.23230000     -70.81980000
H      -44.26550000     -30.15350000     -72.23780000
C      -45.00720000     -32.16170000     -71.58800000
H      -45.28270000     -32.34670000     -70.55680000
H      -45.88430000     -32.66910000     -72.14100000
C      -45.64760000     -35.38670000     -71.83470000
H      -46.19750000     -34.53550000     -72.16750000
H      -46.07810000     -36.20890000     -72.40810000
C      -44.07850000     -35.27100000     -72.05510000
C      -43.26250000     -36.35310000     -72.35390000
C      -43.30800000     -34.05110000     -72.02470000
H      -43.59720000     -37.41640000     -72.39450000
C      -41.92910000     -34.34610000     -72.24350000
C      -43.63190000     -32.67830000     -71.89500000
C      -42.46280000     -31.90510000     -71.89870000
S      -41.54850000     -36.00800000     -72.54660000
S      -41.01860000     -32.84900000     -72.17660000
H      -42.38980000     -30.85730000     -71.74780000
