40
Properties=species:S:1:pos:R:3 #=T CELL(abcABC):=T 1.889726e+02=T 90.00000=T Traj:=T positionsangstrom=T Step:=T 0=T Bead:=T pbc="F F F"
C      -48.51690000     -31.91730000     -68.49710000
C      -48.16350000     -31.65190000     -69.83060000
C      -48.30260000     -32.67500000     -70.75020000
C      -48.61780000     -33.98410000     -70.32640000
C      -49.02170000     -34.15950000     -68.98410000
C      -48.94860000     -33.13770000     -68.04150000
H      -48.40620000     -31.06810000     -67.80520000
H      -48.20700000     -32.41600000     -71.80800000
H      -49.50580000     -35.11650000     -68.66540000
H      -49.36280000     -33.29990000     -67.00820000
C      -48.87330000     -35.00750000     -71.40230000
H      -48.93880000     -34.45390000     -72.32560000
H      -49.82910000     -35.57960000     -71.27020000
C      -47.50290000     -30.34440000     -70.18990000
H      -48.21550000     -29.57050000     -69.94980000
H      -46.66450000     -30.18100000     -69.44650000
S      -47.64110000     -36.36370000     -71.53530000
S      -46.84780000     -30.14890000     -71.89200000
C      -45.88950000     -35.61810000     -71.25170000
H      -46.01550000     -34.79970000     -70.54370000
H      -45.36090000     -36.44140000     -70.75160000
C      -45.44410000     -31.37860000     -72.11170000
H      -44.72150000     -30.91480000     -72.75610000
H      -45.92980000     -32.13850000     -72.71700000
C      -44.79520000     -31.94350000     -70.86920000
H      -44.78830000     -31.18140000     -70.07560000
H      -45.44740000     -32.79940000     -70.55340000
C      -45.24090000     -35.13150000     -72.56190000
H      -45.64930000     -34.13430000     -72.72300000
H      -45.44620000     -35.66750000     -73.48900000
C      -43.68840000     -34.92300000     -72.42600000
C      -42.83750000     -35.81940000     -73.05750000
C      -43.07300000     -33.75020000     -71.96290000
H      -43.01440000     -36.83270000     -73.48470000
C      -41.68420000     -33.81600000     -72.11330000
C      -43.39010000     -32.47370000     -71.29850000
C      -42.28800000     -31.69110000     -71.01230000
S      -41.18800000     -35.19120000     -72.98100000
S      -40.82580000     -32.47600000     -71.53070000
H      -42.28020000     -30.74400000     -70.51120000
