40
Properties=species:S:1:pos:R:3 #=T CELL(abcABC):=T 1.889726e+02=T 90.00000=T Traj:=T positionsangstrom=T Step:=T 0=T Bead:=T pbc="F F F"
C      -47.37500000     -30.59000000     -69.45250000
C      -47.92380000     -31.02310000     -70.69000000
C      -48.30020000     -32.35110000     -70.79970000
C      -48.08290000     -33.31030000     -69.77770000
C      -47.52700000     -32.90110000     -68.58670000
C      -47.22540000     -31.52850000     -68.38570000
H      -47.13100000     -29.57380000     -69.26140000
H      -48.72820000     -32.64870000     -71.76240000
H      -47.54160000     -33.68170000     -67.81320000
H      -46.70360000     -31.05920000     -67.51150000
C      -48.51390000     -34.65460000     -70.08340000
H      -48.42260000     -34.85190000     -71.16670000
H      -49.56320000     -34.85830000     -69.83710000
C      -48.08680000     -30.07190000     -71.87680000
H      -49.11040000     -30.20550000     -72.28660000
H      -48.00140000     -29.03970000     -71.61970000
S      -47.40060000     -35.88260000     -69.23930000
S      -46.81720000     -30.45510000     -73.24350000
C      -45.80240000     -35.27610000     -69.84610000
H      -45.57800000     -34.25720000     -69.57230000
H      -45.00090000     -35.81120000     -69.34120000
C      -45.43910000     -30.82060000     -72.04950000
H      -45.73510000     -30.29230000     -71.14870000
H      -44.60230000     -30.23110000     -72.44350000
C      -45.14190000     -32.29350000     -71.82250000
H      -45.46870000     -32.54110000     -70.84660000
H      -45.76570000     -32.92510000     -72.40170000
C      -45.61130000     -35.57370000     -71.37960000
H      -46.34290000     -34.98840000     -71.96780000
H      -45.87190000     -36.62440000     -71.53770000
C      -44.20030000     -35.48020000     -71.89530000
C      -43.41460000     -36.59070000     -72.11860000
C      -43.45750000     -34.26730000     -72.17910000
H      -43.43930000     -37.65060000     -71.85520000
C      -42.16630000     -34.49660000     -72.58560000
C      -43.75120000     -32.83820000     -72.04390000
C      -42.62260000     -32.06110000     -72.10650000
S      -41.76600000     -36.24350000     -72.59510000
S      -41.20540000     -32.99270000     -72.52970000
H      -42.43520000     -30.99910000     -72.23230000
