40
Properties=species:S:1:pos:R:3 #=T CELL(abcABC):=T 1.889726e+02=T 90.00000=T Traj:=T positionsangstrom=T Step:=T 0=T Bead:=T pbc="F F F"
C      -47.90950000     -30.74190000     -69.30610000
C      -48.21010000     -31.02010000     -70.61620000
C      -48.44910000     -32.36110000     -70.91880000
C      -48.34610000     -33.35520000     -69.95890000
C      -48.09460000     -33.02330000     -68.60540000
C      -47.90070000     -31.68680000     -68.27860000
H      -47.79460000     -29.62840000     -68.98870000
H      -48.88550000     -32.53900000     -71.89420000
H      -48.13090000     -33.81610000     -67.85590000
H      -47.89580000     -31.48790000     -67.23590000
C      -48.65850000     -34.70460000     -70.51250000
H      -48.54400000     -34.70110000     -71.59620000
H      -49.63730000     -35.00500000     -70.16260000
C      -48.14710000     -30.05530000     -71.73680000
H      -49.05630000     -30.15610000     -72.30370000
H      -48.08540000     -29.02860000     -71.30270000
S      -47.51750000     -36.13060000     -69.71450000
S      -46.71760000     -30.22240000     -72.90170000
C      -45.79440000     -35.70110000     -70.08970000
H      -45.60180000     -34.73310000     -69.62970000
H      -45.28150000     -36.47720000     -69.49880000
C      -45.25730000     -30.69130000     -71.84560000
H      -45.43210000     -30.18620000     -70.87240000
H      -44.40370000     -30.20210000     -72.34870000
C      -44.93730000     -32.16810000     -71.56360000
H      -45.02310000     -32.33470000     -70.51100000
H      -45.55020000     -32.88310000     -72.07940000
C      -45.49440000     -35.68120000     -71.60210000
H      -46.18050000     -34.89480000     -72.09290000
H      -45.86500000     -36.66740000     -71.99420000
C      -44.01510000     -35.43480000     -71.92790000
C      -43.17970000     -36.50720000     -72.13230000
C      -43.30690000     -34.17850000     -72.02190000
H      -43.54980000     -37.48070000     -72.42080000
C      -41.96340000     -34.43390000     -72.34850000
C      -43.59780000     -32.75630000     -71.92010000
C      -42.42990000     -32.07720000     -72.03120000
S      -41.51270000     -36.05290000     -72.58390000
S      -40.99290000     -32.96850000     -72.50350000
H      -42.28420000     -31.01140000     -71.89800000
