40
Properties=species:S:1:pos:R:3 #=T CELL(abcABC):=T 1.889726e+02=T 90.00000=T Traj:=T positionsangstrom=T Step:=T 0=T Bead:=T pbc="F F F"
C      -48.16950000     -31.68810000     -68.71930000
C      -47.87100000     -31.58070000     -70.08250000
C      -48.00170000     -32.69520000     -70.91650000
C      -48.53060000     -33.86030000     -70.43080000
C      -48.86790000     -33.93050000     -69.08430000
C      -48.76130000     -32.83360000     -68.20300000
H      -48.01470000     -30.74090000     -68.08570000
H      -47.90740000     -32.66700000     -71.99620000
H      -49.34140000     -34.86880000     -68.74570000
H      -49.26960000     -32.79360000     -67.25470000
C      -48.69180000     -35.09260000     -71.27390000
H      -48.60430000     -34.91790000     -72.36050000
H      -49.66070000     -35.54100000     -71.13470000
C      -47.38470000     -30.20360000     -70.58080000
H      -48.02930000     -29.36200000     -70.42370000
H      -46.42980000     -29.91500000     -70.05450000
S      -47.50090000     -36.41500000     -70.84960000
S      -46.97710000     -30.24250000     -72.41410000
C      -45.86980000     -35.53610000     -70.94970000
H      -45.99600000     -34.77280000     -70.14270000
H      -45.06800000     -36.24550000     -70.61340000
C      -45.15870000     -30.65340000     -72.39530000
H      -44.44080000     -29.81000000     -72.23410000
H      -44.85240000     -31.00270000     -73.36540000
C      -44.91540000     -31.74210000     -71.41660000
H      -45.07970000     -31.52310000     -70.33150000
H      -45.71730000     -32.45860000     -71.62210000
C      -45.51150000     -35.10470000     -72.35040000
H      -45.91450000     -34.13430000     -72.68200000
H      -45.72740000     -35.80380000     -73.16810000
C      -43.96280000     -34.91840000     -72.39200000
C      -43.15980000     -35.99900000     -72.71180000
C      -43.14950000     -33.74000000     -72.00320000
H      -43.31570000     -36.94190000     -73.21690000
C      -41.83080000     -33.94160000     -72.07460000
C      -43.49240000     -32.41940000     -71.53570000
C      -42.35480000     -31.76020000     -71.07750000
S      -41.41800000     -35.58670000     -72.61510000
S      -40.89340000     -32.67700000     -71.42610000
H      -42.37510000     -30.78710000     -70.62410000
