40
Properties=species:S:1:pos:R:3 #=T CELL(abcABC):=T 1.889726e+02=T 90.00000=T Traj:=T positionsangstrom=T Step:=T 0=T Bead:=T pbc="F F F"
C      -48.19280000     -31.45720000     -68.88380000
C      -48.06430000     -31.45880000     -70.27790000
C      -48.30700000     -32.64880000     -70.93870000
C      -48.52190000     -33.87490000     -70.29730000
C      -48.68190000     -33.80860000     -68.90440000
C      -48.52310000     -32.60420000     -68.17540000
H      -47.97780000     -30.60950000     -68.25680000
H      -48.18110000     -32.69400000     -72.04730000
H      -48.97770000     -34.68060000     -68.37590000
H      -48.67200000     -32.55010000     -67.09300000
C      -48.78110000     -35.11500000     -71.12280000
H      -48.54780000     -34.88800000     -72.17060000
H      -49.84190000     -35.50130000     -71.01020000
C      -47.58510000     -30.14070000     -70.85800000
H      -48.47010000     -29.50050000     -70.99220000
H      -46.94790000     -29.69790000     -70.11880000
S      -47.45240000     -36.39620000     -70.55180000
S      -46.81450000     -29.99560000     -72.57920000
C      -45.87200000     -35.50360000     -70.78010000
H      -45.97910000     -34.58970000     -70.26150000
H      -45.07980000     -36.08380000     -70.33490000
C      -45.03700000     -30.51280000     -72.44500000
H      -44.56150000     -29.62820000     -71.99440000
H      -44.67200000     -30.65340000     -73.41580000
C      -44.82820000     -31.78580000     -71.56960000
H      -44.85550000     -31.37050000     -70.53280000
H      -45.60650000     -32.49430000     -71.71070000
C      -45.55420000     -35.13600000     -72.22540000
H      -46.07410000     -34.21870000     -72.48010000
H      -45.96970000     -35.96110000     -72.76750000
C      -44.07060000     -35.00200000     -72.34180000
C      -43.26130000     -36.02760000     -72.72470000
C      -43.22160000     -33.80390000     -72.03380000
H      -43.64480000     -36.90110000     -73.17510000
C      -41.87300000     -34.13900000     -72.02490000
C      -43.45310000     -32.44070000     -71.67270000
C      -42.22990000     -31.79720000     -71.45690000
S      -41.52040000     -35.86650000     -72.54030000
S      -40.84780000     -32.87780000     -71.43340000
H      -42.13280000     -30.70430000     -71.30820000
