40
Properties=species:S:1:pos:R:3 #=T CELL(abcABC):=T 1.889726e+02=T 90.00000=T Traj:=T positionsangstrom=T Step:=T 0=T Bead:=T pbc="F F F"
C      -44.96400000     -34.15360000     -68.80720000
C      -45.93690000     -33.15950000     -68.66870000
C      -45.75060000     -31.83480000     -69.16260000
C      -44.57340000     -31.51300000     -69.80230000
C      -43.64600000     -32.56220000     -70.04830000
C      -43.80440000     -33.81270000     -69.47410000
H      -45.28910000     -35.10330000     -68.39980000
H      -46.49530000     -31.09170000     -68.88770000
H      -42.67320000     -32.27230000     -70.54880000
H      -42.88930000     -34.54630000     -69.44300000
C      -44.36950000     -30.05780000     -70.25030000
H      -43.43780000     -29.70330000     -69.78240000
H      -45.18590000     -29.44610000     -69.91270000
C      -47.28500000     -33.51030000     -68.16880000
H      -47.26380000     -34.04810000     -67.21950000
H      -47.91230000     -32.68270000     -67.93180000
S      -44.30810000     -29.85960000     -72.07700000
S      -48.23210000     -34.50870000     -69.47370000
C      -45.79800000     -30.69410000     -72.66030000
H      -46.24700000     -31.18510000     -71.81600000
H      -46.45000000     -29.96000000     -73.10060000
C      -48.12860000     -33.33090000     -70.90170000
H      -47.28690000     -32.65700000     -70.76950000
H      -48.97710000     -32.76420000     -70.97190000
C      -47.81610000     -33.95250000     -72.28340000
H      -48.67420000     -34.50770000     -72.68390000
H      -47.67070000     -33.13170000     -73.02510000
C      -45.41190000     -31.69580000     -73.79410000
H      -44.72530000     -31.25090000     -74.49410000
H      -46.37580000     -31.72460000     -74.34770000
C      -44.74780000     -32.91830000     -73.36600000
C      -43.41950000     -33.10110000     -73.71520000
C      -45.20300000     -34.24240000     -72.77350000
H      -42.71630000     -32.51850000     -74.25170000
C      -44.21050000     -35.15770000     -72.55660000
C      -46.53370000     -34.77920000     -72.26890000
C      -46.40760000     -36.01730000     -71.66490000
S      -42.64390000     -34.61180000     -73.14510000
S      -44.74150000     -36.67800000     -71.77080000
H      -47.18660000     -36.62160000     -71.28880000
