40
Properties=species:S:1:pos:R:3 #=T CELL(abcABC):=T 1.889726e+02=T 90.00000=T Traj:=T positionsangstrom=T Step:=T 0=T Bead:=T pbc="F F F"
C      -43.53340000     -37.19820000     -71.39290000
C      -43.14470000     -36.18560000     -70.48900000
C      -42.51680000     -35.05580000     -71.01100000
C      -42.39310000     -34.88190000     -72.38970000
C      -42.92200000     -35.81150000     -73.29820000
C      -43.46310000     -36.97980000     -72.75490000
H      -43.97830000     -38.16090000     -71.06120000
H      -42.01020000     -34.28100000     -70.45540000
H      -42.83880000     -35.63540000     -74.38240000
H      -43.77240000     -37.68590000     -73.43220000
C      -41.76920000     -33.62730000     -72.99430000
H      -41.04520000     -34.09710000     -73.76200000
H      -41.10630000     -33.00880000     -72.29090000
C      -43.35230000     -36.31520000     -68.99130000
H      -43.76260000     -37.20190000     -68.66400000
H      -42.45350000     -36.05710000     -68.47860000
S      -42.92310000     -32.54500000     -74.00080000
S      -44.58270000     -35.01240000     -68.29040000
C      -44.34670000     -31.94060000     -72.92360000
H      -44.14130000     -32.28160000     -71.93980000
H      -44.45990000     -30.93580000     -73.18320000
C      -45.99490000     -35.36030000     -69.48900000
H      -46.94480000     -35.27170000     -68.92950000
H      -46.00380000     -36.41450000     -69.80100000
C      -46.01560000     -34.39250000     -70.62600000
H      -45.00230000     -34.14830000     -71.07420000
H      -46.68210000     -34.73940000     -71.37490000
C      -45.64770000     -32.55570000     -73.38590000
H      -45.71620000     -33.59760000     -73.19620000
H      -45.70740000     -32.51330000     -74.47110000
C      -46.86970000     -31.91720000     -72.69300000
C      -47.63310000     -30.94020000     -73.31110000
C      -47.13850000     -32.09700000     -71.31280000
H      -47.60800000     -30.76620000     -74.34190000
C      -47.99310000     -31.07230000     -70.88470000
C      -46.73920000     -33.03440000     -70.20130000
C      -47.23690000     -32.60810000     -68.96250000
S      -48.48660000     -30.01230000     -72.17440000
S      -48.26810000     -31.19540000     -69.15800000
H      -47.09470000     -33.24670000     -68.11320000
