40
Properties=species:S:1:pos:R:3 #=T CELL(abcABC):=T 1.889726e+02=T 90.00000=T Traj:=T positionsangstrom=T Step:=T 0=T Bead:=T pbc="F F F"
C      -46.35110000     -29.27700000     -73.52850000
C      -46.98170000     -30.52810000     -73.35210000
C      -46.27600000     -31.65440000     -73.67830000
C      -45.08010000     -31.60820000     -74.40810000
C      -44.63780000     -30.34630000     -74.89680000
C      -45.22150000     -29.21560000     -74.35370000
H      -46.87440000     -28.34230000     -73.31630000
H      -46.60810000     -32.66740000     -73.29640000
H      -43.70680000     -30.23120000     -75.46930000
H      -44.79910000     -28.28890000     -74.56600000
C      -44.43680000     -32.93640000     -74.85120000
H      -43.36800000     -32.76730000     -74.89720000
H      -44.75990000     -33.29460000     -75.83660000
C      -48.13180000     -30.73750000     -72.46390000
H      -48.94070000     -30.05000000     -72.66840000
H      -48.44950000     -31.78090000     -72.67810000
S      -44.59330000     -34.26350000     -73.61160000
S      -47.60880000     -30.41700000     -70.69780000
C      -42.96980000     -34.18030000     -72.81280000
H      -42.56020000     -35.15180000     -73.03120000
H      -42.34910000     -33.51620000     -73.40800000
C      -47.38870000     -32.15310000     -69.99680000
H      -48.29400000     -32.65580000     -70.37040000
H      -47.50080000     -31.97490000     -68.92770000
C      -46.03680000     -32.84640000     -70.18860000
H      -45.89900000     -33.04870000     -71.23030000
H      -45.32340000     -32.05760000     -70.11610000
C      -42.87960000     -33.77380000     -71.32090000
H      -43.41290000     -32.87400000     -71.22010000
H      -41.75900000     -33.55890000     -71.10460000
C      -43.36980000     -34.89860000     -70.33360000
C      -42.61570000     -35.98150000     -70.00200000
C      -44.56130000     -34.90280000     -69.48330000
H      -41.65420000     -36.21680000     -70.41020000
C      -44.68150000     -36.09810000     -68.78690000
C      -45.76050000     -34.10440000     -69.35820000
C      -46.78350000     -34.75340000     -68.69520000
S      -43.30580000     -37.15540000     -68.85330000
S      -46.28050000     -36.33330000     -68.06370000
H      -47.72440000     -34.27610000     -68.33270000
