40
Properties=species:S:1:pos:R:3 #=T CELL(abcABC):=T 1.889726e+02=T 90.00000=T Traj:=T positionsangstrom=T Step:=T 0=T Bead:=T pbc="F F F"
C      -46.41770000     -29.51680000     -73.80450000
C      -46.78690000     -30.66840000     -73.11570000
C      -46.16070000     -31.90800000     -73.45770000
C      -45.05470000     -31.87600000     -74.34450000
C      -44.56480000     -30.65560000     -74.86470000
C      -45.28450000     -29.50080000     -74.61210000
H      -46.90890000     -28.54310000     -73.66040000
H      -46.47580000     -32.74620000     -72.85200000
H      -43.70330000     -30.65180000     -75.50500000
H      -44.88920000     -28.54040000     -74.95230000
C      -44.37340000     -33.09970000     -74.87420000
H      -43.38290000     -32.86840000     -75.30510000
H      -44.86690000     -33.60230000     -75.67080000
C      -48.07090000     -30.73570000     -72.33820000
H      -48.80270000     -29.87010000     -72.53870000
H      -48.53600000     -31.70010000     -72.51600000
S      -44.17930000     -34.31300000     -73.56350000
S      -48.00060000     -30.48890000     -70.43810000
C      -42.57470000     -33.87890000     -72.58420000
H      -41.90600000     -34.74540000     -72.63430000
H      -42.33810000     -32.98110000     -73.08830000
C      -47.46720000     -32.04510000     -69.67560000
H      -48.14120000     -32.87000000     -70.07310000
H      -47.66350000     -31.97330000     -68.58230000
C      -45.98550000     -32.51440000     -69.89090000
H      -45.69950000     -32.25990000     -70.91370000
H      -45.36830000     -31.99150000     -69.21060000
C      -42.98680000     -33.51130000     -71.15680000
H      -43.81290000     -32.84580000     -71.09210000
H      -42.05020000     -33.11570000     -70.68860000
C      -43.39860000     -34.72960000     -70.38310000
C      -42.61250000     -35.81960000     -70.15260000
C      -44.63840000     -34.86900000     -69.66540000
H      -41.51980000     -35.99550000     -70.43640000
C      -44.75270000     -36.04620000     -68.97500000
C      -45.84610000     -34.01360000     -69.51000000
C      -46.85750000     -34.68250000     -68.86690000
S      -43.41140000     -37.17450000     -69.20710000
S      -46.32450000     -36.20350000     -68.19040000
H      -47.80160000     -34.21250000     -68.50970000
