40
Properties=species:S:1:pos:R:3 #=T CELL(abcABC):=T 1.889726e+02=T 90.00000=T Traj:=T positionsangstrom=T Step:=T 0=T Bead:=T pbc="F F F"
C      -46.90660000     -30.44610000     -69.36520000
C      -47.51070000     -31.02490000     -70.51670000
C      -47.95240000     -32.34900000     -70.46070000
C      -47.76670000     -33.11460000     -69.29070000
C      -47.24520000     -32.52350000     -68.15690000
C      -46.77580000     -31.21770000     -68.18170000
H      -46.59250000     -29.37820000     -69.46750000
H      -48.55990000     -32.71660000     -71.30420000
H      -47.24050000     -33.04980000     -67.21570000
H      -46.40020000     -30.82360000     -67.26090000
C      -48.39960000     -34.59050000     -69.24120000
H      -48.78000000     -34.87890000     -70.19750000
H      -49.18660000     -34.76460000     -68.50870000
C      -47.67580000     -30.19340000     -71.76550000
H      -48.62910000     -29.63020000     -71.62660000
H      -46.92800000     -29.40680000     -71.65760000
S      -47.11290000     -35.90690000     -68.91470000
S      -47.59830000     -31.03310000     -73.33960000
C      -45.64860000     -35.17460000     -69.84450000
H      -45.68890000     -34.07670000     -69.73100000
H      -44.80030000     -35.63860000     -69.32320000
C      -45.70200000     -31.11900000     -73.28490000
H      -45.33040000     -30.07890000     -73.04070000
H      -45.30810000     -31.52060000     -74.22960000
C      -45.21440000     -32.09610000     -72.18660000
H      -45.21450000     -31.50810000     -71.26640000
H      -45.98770000     -32.75020000     -71.96670000
C      -45.70630000     -35.57340000     -71.25410000
H      -46.36870000     -34.95450000     -71.97100000
H      -46.07380000     -36.61890000     -71.43250000
C      -44.32340000     -35.45410000     -71.96230000
C      -43.55070000     -36.57090000     -72.11860000
C      -43.64300000     -34.20760000     -72.33200000
H      -43.92330000     -37.54740000     -71.90450000
C      -42.27430000     -34.47620000     -72.64700000
C      -43.86220000     -32.75580000     -72.40370000
C      -42.67080000     -31.97960000     -72.61950000
S      -41.93090000     -36.20940000     -72.63860000
S      -41.27870000     -32.95930000     -72.72030000
H      -42.76750000     -30.91510000     -72.88980000
