40
Properties=species:S:1:pos:R:3 #=T CELL(abcABC):=T 1.889726e+02=T 90.00000=T Traj:=T positionsangstrom=T Step:=T 0=T Bead:=T pbc="F F F"
C      -44.92160000     -34.01660000     -68.79870000
C      -45.99090000     -33.06300000     -68.66110000
C      -45.72930000     -31.72700000     -69.15710000
C      -44.50360000     -31.37380000     -69.74390000
C      -43.48220000     -32.34030000     -69.82000000
C      -43.72110000     -33.65760000     -69.31180000
H      -45.17240000     -35.08360000     -68.61060000
H      -46.52120000     -31.04110000     -69.10500000
H      -42.63550000     -32.12170000     -70.52040000
H      -42.85420000     -34.34370000     -69.40420000
C      -44.35630000     -30.02090000     -70.36450000
H      -43.37980000     -29.60170000     -70.15120000
H      -45.09340000     -29.29050000     -70.04140000
C      -47.26400000     -33.48110000     -68.10960000
H      -47.15010000     -34.20260000     -67.23360000
H      -47.88590000     -32.63910000     -67.82410000
S      -44.57350000     -29.93870000     -72.24820000
S      -48.24850000     -34.40510000     -69.35330000
C      -45.97010000     -31.04960000     -72.74100000
H      -46.20780000     -31.70430000     -71.86430000
H      -46.95700000     -30.56380000     -72.92970000
C      -48.26190000     -33.32340000     -70.88540000
H      -47.66540000     -32.36850000     -70.61190000
H      -49.28310000     -32.91550000     -70.89520000
C      -47.87910000     -34.01150000     -72.21330000
H      -48.63890000     -34.77910000     -72.43510000
H      -47.89110000     -33.19290000     -72.93120000
C      -45.61410000     -31.97230000     -73.92600000
H      -45.16710000     -31.45190000     -74.75860000
H      -46.45690000     -32.54200000     -74.25600000
C      -44.61030000     -33.06730000     -73.52640000
C      -43.23010000     -33.19300000     -73.69520000
C      -45.13420000     -34.17590000     -72.80500000
H      -42.43770000     -32.48110000     -74.00570000
C      -44.12100000     -35.14540000     -72.53020000
C      -46.42340000     -34.65150000     -72.27040000
C      -46.33150000     -35.91270000     -71.70850000
S      -42.56850000     -34.76620000     -73.16930000
S      -44.67710000     -36.61250000     -71.73580000
H      -47.04500000     -36.53890000     -71.20220000
