40
Properties=species:S:1:pos:R:3 #=T CELL(abcABC):=T 1.889726e+02=T 90.00000=T Traj:=T positionsangstrom=T Step:=T 0=T Bead:=T pbc="F F F"
C      -46.23240000     -29.54570000     -73.49710000
C      -46.75600000     -30.79540000     -73.07630000
C      -46.21200000     -32.00880000     -73.48400000
C      -45.11870000     -32.03160000     -74.41640000
C      -44.63700000     -30.80680000     -74.86450000
C      -45.20660000     -29.57740000     -74.41410000
H      -46.64570000     -28.65410000     -73.16030000
H      -46.71890000     -32.88480000     -73.19740000
H      -43.98020000     -30.66940000     -75.72070000
H      -44.78400000     -28.58120000     -74.82890000
C      -44.43670000     -33.31350000     -74.83970000
H      -43.62260000     -33.10160000     -75.50220000
H      -45.24190000     -33.81980000     -75.43590000
C      -48.02940000     -30.83410000     -72.23120000
H      -48.77520000     -30.23620000     -72.72110000
H      -48.43790000     -31.83420000     -72.29060000
S      -43.97470000     -34.48990000     -73.37240000
S      -47.64000000     -30.37140000     -70.54540000
C      -42.68520000     -33.44260000     -72.57940000
H      -41.69750000     -33.84530000     -72.62880000
H      -42.55450000     -32.50450000     -73.17760000
C      -47.68480000     -32.10120000     -69.75370000
H      -48.30060000     -32.76830000     -70.27220000
H      -48.12520000     -31.97280000     -68.80140000
C      -46.25830000     -32.57990000     -69.88260000
H      -46.01370000     -32.53640000     -70.96900000
H      -45.48060000     -31.88100000     -69.39980000
C      -43.06380000     -33.27290000     -71.05020000
H      -43.86270000     -32.48480000     -70.97660000
H      -42.18360000     -32.95210000     -70.48700000
C      -43.56140000     -34.53230000     -70.41070000
C      -42.77310000     -35.63870000     -70.36130000
C      -44.79930000     -34.77310000     -69.69440000
H      -41.81640000     -35.75860000     -70.89620000
C      -44.86240000     -36.06330000     -69.21410000
C      -45.99310000     -33.99570000     -69.29900000
C      -46.83530000     -34.68840000     -68.45830000
S      -43.40260000     -36.97740000     -69.46030000
S      -46.34330000     -36.39030000     -68.29720000
H      -47.65680000     -34.29520000     -67.85740000
