40
Properties=species:S:1:pos:R:3 #=T CELL(abcABC):=T 1.889726e+02=T 90.00000=T Traj:=T positionsangstrom=T Step:=T 0=T Bead:=T pbc="F F F"
C      -47.22830000     -30.50330000     -69.46970000
C      -47.90060000     -31.01190000     -70.62900000
C      -48.25180000     -32.35960000     -70.70310000
C      -48.05200000     -33.21890000     -69.61850000
C      -47.49220000     -32.67140000     -68.43960000
C      -47.03520000     -31.37890000     -68.35850000
H      -46.90570000     -29.46120000     -69.50910000
H      -48.78010000     -32.67490000     -71.60090000
H      -47.42500000     -33.37340000     -67.60120000
H      -46.63640000     -30.86260000     -67.42670000
C      -48.55140000     -34.63320000     -69.57710000
H      -49.00990000     -34.88990000     -70.53000000
H      -49.21620000     -34.71430000     -68.76100000
C      -48.04390000     -30.00160000     -71.79950000
H      -49.04340000     -29.96210000     -72.23440000
H      -47.84350000     -29.00650000     -71.36680000
S      -47.17080000     -35.89200000     -69.03860000
S      -46.96200000     -30.31450000     -73.19310000
C      -45.64360000     -35.48100000     -69.98310000
H      -45.50040000     -34.39020000     -69.89070000
H      -44.90530000     -35.94030000     -69.25660000
C      -45.22960000     -30.92480000     -72.78180000
H      -44.58840000     -30.17710000     -72.32030000
H      -44.83670000     -31.15450000     -73.76760000
C      -45.16470000     -32.23980000     -71.90000000
H      -45.36880000     -31.92100000     -70.89080000
H      -46.01180000     -32.87110000     -72.25990000
C      -45.73530000     -35.77780000     -71.51150000
H      -46.41050000     -35.09440000     -72.02780000
H      -46.03940000     -36.86190000     -71.68990000
C      -44.33720000     -35.62730000     -72.00970000
C      -43.51890000     -36.65160000     -72.29720000
C      -43.60730000     -34.34840000     -72.05010000
H      -43.79330000     -37.71870000     -72.53720000
C      -42.27150000     -34.51070000     -72.36290000
C      -43.84840000     -32.88590000     -72.07280000
C      -42.72600000     -32.12250000     -72.34550000
S      -41.77910000     -36.16320000     -72.62440000
S      -41.29240000     -33.12630000     -72.62210000
H      -42.70040000     -31.02140000     -72.30560000
