40
Properties=species:S:1:pos:R:3 #=T CELL(abcABC):=T 1.889726e+02=T 90.00000=T Traj:=T positionsangstrom=T Step:=T 0=T Bead:=T pbc="F F F"
C      -46.59550000     -29.41030000     -73.76770000
C      -47.04940000     -30.62490000     -73.28280000
C      -46.33660000     -31.80190000     -73.67550000
C      -45.10980000     -31.69110000     -74.34400000
C      -44.57440000     -30.39220000     -74.58930000
C      -45.35990000     -29.27320000     -74.37570000
H      -46.98100000     -28.51220000     -73.29250000
H      -46.68600000     -32.80560000     -73.31680000
H      -43.66460000     -30.27280000     -75.15950000
H      -44.94840000     -28.25040000     -74.53880000
C      -44.24530000     -32.87370000     -74.72260000
H      -43.23440000     -32.53350000     -75.08180000
H      -44.73580000     -33.26890000     -75.60160000
C      -48.21070000     -30.65460000     -72.29260000
H      -48.82640000     -29.71190000     -72.43930000
H      -48.79490000     -31.54160000     -72.37260000
S      -44.44400000     -34.27240000     -73.56230000
S      -47.61540000     -30.47330000     -70.54760000
C      -42.82590000     -34.34120000     -72.78670000
H      -42.51860000     -35.38770000     -72.62930000
H      -42.15570000     -33.72440000     -73.38310000
C      -47.35280000     -32.19330000     -69.90810000
H      -48.03460000     -32.84190000     -70.46960000
H      -47.63420000     -32.18250000     -68.85470000
C      -45.93140000     -32.68940000     -70.04750000
H      -45.67730000     -32.80280000     -71.13690000
H      -45.25600000     -31.96040000     -69.52770000
C      -42.91490000     -33.73180000     -71.31640000
H      -43.62000000     -32.91850000     -71.24320000
H      -41.92630000     -33.37480000     -70.97770000
C      -43.34810000     -34.84270000     -70.37010000
C      -42.55760000     -35.90550000     -70.06710000
C      -44.65000000     -34.97660000     -69.74010000
H      -41.54770000     -36.05880000     -70.53940000
C      -44.79570000     -36.15610000     -69.01830000
C      -45.77590000     -34.08860000     -69.56210000
C      -46.78580000     -34.65150000     -68.81220000
S      -43.37140000     -37.16930000     -69.05600000
S      -46.26010000     -36.15200000     -68.05120000
H      -47.79380000     -34.24750000     -68.61140000
