40
Properties=species:S:1:pos:R:3 #=T CELL(abcABC):=T 1.889726e+02=T 90.00000=T Traj:=T positionsangstrom=T Step:=T 0=T Bead:=T pbc="F F F"
C      -44.89330000     -33.59620000     -68.83540000
C      -45.99280000     -32.72620000     -68.87580000
C      -45.91400000     -31.52210000     -69.53170000
C      -44.71510000     -31.06360000     -70.01890000
C      -43.58500000     -31.91900000     -70.02210000
C      -43.69700000     -33.15960000     -69.36820000
H      -44.97750000     -34.59850000     -68.43970000
H      -46.80870000     -30.97460000     -69.63760000
H      -42.80590000     -31.75320000     -70.74890000
H      -42.85030000     -33.82650000     -69.29290000
C      -44.72150000     -29.74630000     -70.79620000
H      -44.10930000     -28.88400000     -70.46000000
H      -45.75270000     -29.37870000     -70.74830000
C      -47.29240000     -33.10180000     -68.22800000
H      -47.19950000     -33.50270000     -67.19410000
H      -47.90400000     -32.18670000     -68.20340000
S      -44.32180000     -30.17030000     -72.54650000
S      -48.39070000     -34.41700000     -69.22550000
C      -45.85420000     -31.11950000     -73.05050000
H      -46.27660000     -31.39940000     -72.07790000
H      -46.64480000     -30.43990000     -73.41030000
C      -48.37090000     -33.65050000     -70.96470000
H      -47.80650000     -32.62420000     -71.01760000
H      -49.42220000     -33.33660000     -71.12480000
C      -47.77890000     -34.56600000     -72.06500000
H      -48.32650000     -35.48370000     -72.07750000
H      -47.88700000     -34.03030000     -72.96700000
C      -45.87630000     -32.38000000     -74.02810000
H      -45.59260000     -32.06000000     -75.04030000
H      -46.99620000     -32.60310000     -74.05910000
C      -44.92590000     -33.42220000     -73.54460000
C      -43.61160000     -33.41140000     -73.93500000
C      -45.15380000     -34.49810000     -72.60400000
H      -43.27420000     -32.65560000     -74.61680000
C      -44.01800000     -35.17550000     -72.34070000
C      -46.26120000     -35.02350000     -71.85090000
C      -45.89720000     -36.06700000     -71.06850000
S      -42.65890000     -34.62990000     -73.12680000
S      -44.22970000     -36.53500000     -71.20010000
H      -46.56150000     -36.59550000     -70.38470000
