40
Properties=species:S:1:pos:R:3 #=T CELL(abcABC):=T 1.889726e+02=T 90.00000=T Traj:=T positionsangstrom=T Step:=T 0=T Bead:=T pbc="F F F"
C      -44.90600000     -33.24150000     -68.60280000
C      -46.02580000     -32.52020000     -68.98820000
C      -45.90630000     -31.43350000     -69.88380000
C      -44.66860000     -31.16870000     -70.52800000
C      -43.62660000     -32.06510000     -70.25210000
C      -43.67060000     -33.01370000     -69.25450000
H      -45.15910000     -34.06740000     -67.98250000
H      -46.82820000     -30.88230000     -70.02940000
H      -42.70860000     -32.01840000     -70.83140000
H      -42.75600000     -33.52350000     -68.94240000
C      -44.57810000     -30.01920000     -71.49380000
H      -43.48770000     -29.66250000     -71.53000000
H      -45.12100000     -29.18710000     -71.02380000
C      -47.32050000     -32.91900000     -68.39160000
H      -47.33060000     -33.16100000     -67.31630000
H      -48.01900000     -32.11870000     -68.57500000
S      -45.13750000     -30.18060000     -73.20980000
S      -48.09430000     -34.45140000     -69.14350000
C      -46.40620000     -31.42970000     -73.23210000
H      -46.81160000     -31.66920000     -72.25590000
H      -47.26420000     -30.96970000     -73.77500000
C      -48.19720000     -33.93420000     -70.88470000
H      -47.59040000     -33.06820000     -70.99420000
H      -49.20840000     -33.56960000     -71.08950000
C      -47.68680000     -35.05500000     -71.81770000
H      -48.30650000     -35.94150000     -71.65430000
H      -47.84360000     -34.72840000     -72.84490000
C      -46.07960000     -32.74220000     -73.98130000
H      -45.95200000     -32.50780000     -75.04500000
H      -47.02660000     -33.35900000     -74.02080000
C      -45.01390000     -33.48880000     -73.38090000
C      -43.66540000     -33.23690000     -73.59410000
C      -45.17360000     -34.53640000     -72.40530000
H      -43.21800000     -32.56430000     -74.33750000
C      -43.87460000     -35.08500000     -72.12270000
C      -46.18250000     -35.31130000     -71.66280000
C      -45.62460000     -36.23570000     -70.80500000
S      -42.50150000     -34.23940000     -72.72460000
S      -43.86460000     -36.28220000     -70.93420000
H      -46.09540000     -37.02840000     -70.19110000
