40
Properties=species:S:1:pos:R:3 #=T CELL(abcABC):=T 1.889726e+02=T 90.00000=T Traj:=T positionsangstrom=T Step:=T 0=T Bead:=T pbc="F F F"
C      -44.88030000     -33.69910000     -68.80270000
C      -45.98930000     -32.86870000     -68.82560000
C      -45.86790000     -31.61960000     -69.41860000
C      -44.63870000     -31.13440000     -69.95970000
C      -43.49790000     -31.98340000     -69.83000000
C      -43.59680000     -33.24990000     -69.28690000
H      -44.85510000     -34.67210000     -68.38650000
H      -46.82430000     -31.04770000     -69.39080000
H      -42.57170000     -31.65350000     -70.18850000
H      -42.81000000     -33.91350000     -69.12750000
C      -44.45950000     -29.79090000     -70.72050000
H      -43.46190000     -29.36270000     -70.56210000
H      -45.27240000     -29.18640000     -70.34390000
C      -47.24350000     -33.39290000     -68.17070000
H      -47.02530000     -34.11130000     -67.39460000
H      -47.86910000     -32.62530000     -67.70130000
S      -44.46760000     -29.99640000     -72.57810000
S      -48.31670000     -34.33250000     -69.35330000
C      -46.00810000     -30.94790000     -72.88920000
H      -46.37020000     -31.31920000     -71.92430000
H      -46.78800000     -30.29290000     -73.37640000
C      -48.12760000     -33.51330000     -71.02250000
H      -47.41150000     -32.75160000     -70.99160000
H      -49.12670000     -33.06110000     -71.17960000
C      -47.80700000     -34.48850000     -72.12880000
H      -48.47550000     -35.38510000     -72.09490000
H      -48.16420000     -33.97400000     -73.09350000
C      -45.72930000     -32.07490000     -73.86940000
H      -45.29060000     -31.64020000     -74.73170000
H      -46.63460000     -32.51020000     -74.26360000
C      -44.80770000     -33.27470000     -73.43250000
C      -43.50160000     -33.42310000     -73.87610000
C      -45.16040000     -34.38810000     -72.61110000
H      -43.19860000     -32.68370000     -74.65120000
C      -44.07150000     -35.27410000     -72.38850000
C      -46.35020000     -34.97390000     -72.02720000
C      -46.13390000     -36.07960000     -71.21640000
S      -42.70840000     -34.84990000     -73.33910000
S      -44.42990000     -36.54700000     -71.11330000
H      -47.01780000     -36.63830000     -70.80590000
