40
Properties=species:S:1:pos:R:3 #=T CELL(abcABC):=T 1.889726e+02=T 90.00000=T Traj:=T positionsangstrom=T Step:=T 0=T Bead:=T pbc="F F F"
C      -44.88000000     -32.75530000     -69.07610000
C      -46.04250000     -31.99310000     -69.47990000
C      -46.01230000     -31.18620000     -70.64620000
C      -44.75550000     -30.98520000     -71.27190000
C      -43.60820000     -31.76880000     -70.84990000
C      -43.70070000     -32.64140000     -69.79260000
H      -44.84780000     -33.34410000     -68.16220000
H      -46.96310000     -30.73220000     -70.87350000
H      -42.53700000     -31.61570000     -71.33810000
H      -42.78780000     -33.11530000     -69.55220000
C      -44.50110000     -30.08270000     -72.43800000
H      -43.43670000     -29.78440000     -72.41440000
H      -45.18780000     -29.20790000     -72.44490000
C      -47.32920000     -32.14050000     -68.72890000
H      -47.06900000     -32.21210000     -67.67350000
H      -47.92700000     -31.23260000     -68.91480000
S      -44.72280000     -30.97570000     -74.02890000
S      -48.27870000     -33.65140000     -69.09940000
C      -46.22160000     -32.02300000     -73.92870000
H      -46.79490000     -31.85980000     -73.06530000
H      -46.84380000     -31.78940000     -74.79110000
C      -48.34990000     -33.60870000     -70.97930000
H      -47.87740000     -32.72020000     -71.18810000
H      -49.35830000     -33.65510000     -71.38570000
C      -47.75710000     -34.94540000     -71.52470000
H      -48.43190000     -35.76780000     -71.19240000
H      -47.91560000     -35.01800000     -72.57530000
C      -45.78790000     -33.54180000     -74.13080000
H      -45.40740000     -33.63420000     -75.13960000
H      -46.70480000     -34.14920000     -74.04630000
C      -44.81680000     -34.07400000     -73.13770000
C      -43.43770000     -34.06360000     -73.36190000
C      -45.10340000     -34.68450000     -71.83180000
H      -42.87810000     -33.59950000     -74.19900000
C      -43.95480000     -35.16060000     -71.21390000
C      -46.28790000     -35.12600000     -71.13470000
C      -45.94680000     -35.98270000     -70.11930000
S      -42.42140000     -34.73890000     -72.04880000
S      -44.24930000     -36.04490000     -69.76100000
H      -46.75100000     -36.42590000     -69.47030000
