40
Properties=species:S:1:pos:R:3 #=T CELL(abcABC):=T 1.889726e+02=T 90.00000=T Traj:=T positionsangstrom=T Step:=T 0=T Bead:=T pbc="F F F"
C      -44.76250000     -32.44820000     -68.82210000
C      -46.04980000     -31.85920000     -69.05240000
C      -46.22780000     -31.12440000     -70.17560000
C      -45.13750000     -30.69300000     -71.04470000
C      -43.81680000     -31.11380000     -70.68680000
C      -43.69620000     -32.09720000     -69.70290000
H      -44.61750000     -32.98980000     -67.90400000
H      -47.26270000     -30.76210000     -70.42280000
H      -43.01840000     -30.77220000     -71.33760000
H      -42.75920000     -32.47620000     -69.45310000
C      -45.49040000     -29.81060000     -72.18560000
H      -44.79440000     -28.95170000     -72.17890000
H      -46.48100000     -29.49630000     -72.25370000
C      -47.18610000     -32.30220000     -68.21580000
H      -46.94850000     -32.50260000     -67.13840000
H      -48.04730000     -31.60230000     -68.21350000
S      -44.97070000     -30.74560000     -73.84190000
S      -47.78140000     -33.96870000     -68.92630000
C      -46.27100000     -32.11550000     -73.91880000
H      -46.64440000     -32.20780000     -72.95920000
H      -46.98940000     -31.77810000     -74.62630000
C      -48.14700000     -33.76680000     -70.69660000
H      -47.66790000     -32.89610000     -70.96960000
H      -49.14830000     -33.51600000     -70.88500000
C      -47.65360000     -34.91120000     -71.62040000
H      -48.21460000     -35.76600000     -71.34290000
H      -47.81590000     -34.69490000     -72.69660000
C      -45.76640000     -33.45800000     -74.26970000
H      -45.41570000     -33.42530000     -75.31170000
H      -46.60980000     -34.16530000     -74.19560000
C      -44.72070000     -34.11970000     -73.35870000
C      -43.34700000     -34.17230000     -73.65880000
C      -45.02530000     -34.79140000     -72.09910000
H      -42.85020000     -33.69260000     -74.49040000
C      -43.86890000     -35.22910000     -71.44280000
C      -46.19940000     -35.20670000     -71.37420000
C      -45.83850000     -36.04510000     -70.35580000
S      -42.42150000     -34.97490000     -72.45200000
S      -44.16770000     -36.33020000     -70.15110000
H      -46.48390000     -36.67170000     -69.76760000
