40
Properties=species:S:1:pos:R:3 #=T CELL(abcABC):=T 1.889726e+02=T 90.00000=T Traj:=T positionsangstrom=T Step:=T 0=T Bead:=T pbc="F F F"
C      -48.19090000     -32.41420000     -69.71490000
C      -47.33890000     -31.30930000     -69.98670000
C      -46.07270000     -31.29840000     -69.50960000
C      -45.60760000     -32.38990000     -68.69730000
C      -46.45240000     -33.44650000     -68.40780000
C      -47.71590000     -33.48000000     -68.99400000
H      -49.15110000     -32.38630000     -70.21050000
H      -45.45030000     -30.32950000     -69.54880000
H      -46.07860000     -34.32050000     -67.91790000
H      -48.29990000     -34.35720000     -68.77800000
C      -44.23980000     -32.32600000     -68.02800000
H      -44.39120000     -32.34300000     -66.89580000
H      -43.81450000     -31.33700000     -68.33720000
C      -47.96970000     -30.12120000     -70.71140000
H      -49.09030000     -30.20000000     -70.88050000
H      -47.65610000     -29.23880000     -70.21020000
S      -42.99360000     -33.71200000     -68.32170000
S      -47.18940000     -29.79990000     -72.31000000
C      -42.09150000     -33.23160000     -69.88520000
H      -41.57640000     -32.28660000     -69.81310000
H      -41.39880000     -34.04110000     -69.94370000
C      -47.14400000     -31.54790000     -72.91100000
H      -47.26570000     -31.35750000     -74.03010000
H      -47.89460000     -32.24610000     -72.64660000
C      -45.64700000     -32.13480000     -72.86320000
H      -45.05630000     -31.50290000     -73.49620000
H      -45.07630000     -31.95480000     -71.93910000
C      -43.07590000     -33.18040000     -70.98960000
H      -42.74640000     -32.52030000     -71.77040000
H      -43.96400000     -32.67240000     -70.58520000
C      -43.53830000     -34.48400000     -71.70950000
C      -42.95440000     -35.71840000     -71.48930000
C      -44.59030000     -34.49770000     -72.73330000
H      -42.05570000     -36.01430000     -70.90140000
C      -44.77990000     -35.77130000     -73.29170000
C      -45.54440000     -33.56390000     -73.24090000
C      -46.30180000     -34.09070000     -74.29010000
S      -43.68310000     -37.03970000     -72.59560000
S      -45.88910000     -35.74520000     -74.52290000
H      -47.02890000     -33.51000000     -74.85390000
