40
Properties=species:S:1:pos:R:3 #=T CELL(abcABC):=T 1.889726e+02=T 90.00000=T Traj:=T positionsangstrom=T Step:=T 0=T Bead:=T pbc="F F F"
C      -44.70690000     -32.32050000     -69.09400000
C      -45.95220000     -31.72740000     -69.39590000
C      -46.01740000     -30.94290000     -70.53360000
C      -44.93770000     -30.78210000     -71.41480000
C      -43.69340000     -31.22310000     -70.97890000
C      -43.58080000     -32.02640000     -69.87360000
H      -44.63510000     -33.09950000     -68.40940000
H      -47.02010000     -30.60450000     -70.81050000
H      -42.79040000     -30.99240000     -71.63600000
H      -42.66580000     -32.64850000     -69.76470000
C      -45.27580000     -29.92830000     -72.61860000
H      -44.46810000     -29.11930000     -72.75260000
H      -46.20030000     -29.31950000     -72.45680000
C      -47.15830000     -32.01350000     -68.52140000
H      -46.72410000     -31.99000000     -67.56490000
H      -47.89920000     -31.15850000     -68.55420000
S      -45.35660000     -30.90030000     -74.14020000
S      -47.98860000     -33.66350000     -68.88490000
C      -46.34850000     -32.39510000     -73.76570000
H      -46.53910000     -32.38600000     -72.72920000
H      -47.35450000     -32.47670000     -74.24480000
C      -48.22330000     -33.62070000     -70.74100000
H      -47.70690000     -32.68010000     -71.03480000
H      -49.26970000     -33.58380000     -71.13530000
C      -47.64970000     -34.92490000     -71.31680000
H      -48.20290000     -35.75840000     -70.99080000
H      -47.79430000     -34.87780000     -72.32990000
C      -45.59160000     -33.60250000     -74.24000000
H      -44.92820000     -33.37010000     -75.06500000
H      -46.24830000     -34.39340000     -74.53910000
C      -44.70620000     -34.23860000     -73.22610000
C      -43.40220000     -34.45820000     -73.56070000
C      -45.00370000     -34.90760000     -71.90480000
H      -42.97490000     -34.06000000     -74.45450000
C      -43.84770000     -35.45240000     -71.35590000
C      -46.14660000     -35.23490000     -71.04450000
C      -45.79740000     -35.77680000     -69.79800000
S      -42.42570000     -35.24560000     -72.30180000
S      -44.06600000     -36.08000000     -69.73500000
H      -46.46680000     -36.27040000     -69.13910000
