40
Properties=species:S:1:pos:R:3 #=T CELL(abcABC):=T 1.889726e+02=T 90.00000=T Traj:=T positionsangstrom=T Step:=T 0=T Bead:=T pbc="F F F"
C      -43.61570000     -37.09780000     -71.67520000
C      -42.96320000     -36.20760000     -70.72390000
C      -42.53540000     -34.96540000     -71.17880000
C      -42.61970000     -34.60620000     -72.54790000
C      -43.17770000     -35.49530000     -73.47850000
C      -43.59010000     -36.72450000     -73.05130000
H      -43.92460000     -38.10820000     -71.46200000
H      -42.04580000     -34.30010000     -70.47710000
H      -43.26990000     -35.25640000     -74.53630000
H      -44.06460000     -37.40160000     -73.83720000
C      -41.90930000     -33.41690000     -73.00160000
H      -41.01920000     -33.62630000     -73.67590000
H      -41.66460000     -32.74420000     -72.07440000
C      -43.05290000     -36.58640000     -69.29260000
H      -43.57310000     -37.51360000     -69.20800000
H      -42.12080000     -36.55470000     -68.70620000
S      -42.95480000     -32.44340000     -74.12850000
S      -44.12050000     -35.44720000     -68.27230000
C      -44.40350000     -31.67410000     -73.13410000
H      -44.09570000     -31.72720000     -72.05040000
H      -44.43360000     -30.63170000     -73.41650000
C      -45.74760000     -35.40210000     -69.41170000
H      -46.56880000     -35.48900000     -68.67930000
H      -45.89880000     -36.36110000     -70.04210000
C      -45.87670000     -34.17430000     -70.39200000
H      -44.85450000     -33.76970000     -70.52340000
H      -46.19650000     -34.63180000     -71.34860000
C      -45.61100000     -32.54480000     -73.30700000
H      -45.37810000     -33.53750000     -72.99870000
H      -45.88410000     -32.49840000     -74.32080000
C      -46.77330000     -31.90940000     -72.52400000
C      -47.55290000     -30.93170000     -73.14260000
C      -47.22870000     -32.13650000     -71.18500000
H      -47.41470000     -30.55440000     -74.12580000
C      -48.17710000     -31.22050000     -70.72260000
C      -46.77880000     -33.01110000     -70.08620000
C      -47.39900000     -32.72520000     -68.89850000
S      -48.51990000     -30.03500000     -71.92280000
S      -48.56920000     -31.33760000     -69.04620000
H      -47.37550000     -33.11840000     -67.89120000
