40
Properties=species:S:1:pos:R:3 #=T CELL(abcABC):=T 1.889726e+02=T 90.00000=T Traj:=T positionsangstrom=T Step:=T 0=T Bead:=T pbc="F F F"
C      -44.84020000     -29.88550000     -72.01640000
C      -45.16940000     -30.65340000     -73.13530000
C      -44.11470000     -31.47340000     -73.65390000
C      -42.78330000     -31.36690000     -73.14340000
C      -42.52290000     -30.44430000     -72.13900000
C      -43.55520000     -29.76200000     -71.50970000
H      -45.69830000     -29.24610000     -71.69300000
H      -44.21050000     -32.12280000     -74.47660000
H      -41.55000000     -30.39670000     -71.70360000
H      -43.31440000     -29.24490000     -70.62880000
C      -41.71000000     -32.44280000     -73.32430000
H      -41.06830000     -32.34270000     -72.41810000
H      -41.06620000     -32.40190000     -74.20990000
C      -46.50420000     -30.79060000     -73.71390000
H      -46.73400000     -29.91980000     -74.29660000
H      -46.49430000     -31.69730000     -74.38740000
S      -42.51790000     -34.06870000     -73.58210000
S      -47.94700000     -30.83550000     -72.53750000
C      -43.42370000     -34.35730000     -72.04890000
H      -42.86920000     -35.12120000     -71.50170000
H      -43.42590000     -33.50740000     -71.33910000
C      -47.80990000     -32.46970000     -71.67450000
H      -47.74550000     -33.23870000     -72.53020000
H      -48.76740000     -32.50600000     -71.20890000
C      -46.58630000     -32.54360000     -70.77710000
H      -45.70410000     -32.55490000     -71.36330000
H      -46.52500000     -31.60700000     -70.15910000
C      -44.80930000     -35.01660000     -72.34720000
H      -44.70160000     -35.81980000     -73.08730000
H      -45.54370000     -34.31870000     -72.78860000
C      -45.46000000     -35.71020000     -71.07830000
C      -45.21500000     -37.03670000     -70.73010000
C      -46.21680000     -35.04140000     -70.01070000
H      -44.72680000     -37.71800000     -71.35140000
C      -46.37050000     -35.86320000     -68.89020000
C      -46.63420000     -33.71100000     -69.80310000
C      -47.07750000     -33.49580000     -68.53890000
S      -45.79260000     -37.45400000     -69.15810000
S      -46.99430000     -34.92620000     -67.55000000
H      -47.32750000     -32.48880000     -68.17210000
