40
Properties=species:S:1:pos:R:3 #=T CELL(abcABC):=T 1.889726e+02=T 90.00000=T Traj:=T positionsangstrom=T Step:=T 0=T Bead:=T pbc="F F F"
C      -44.53780000     -32.41720000     -68.85530000
C      -45.74310000     -31.82060000     -69.24820000
C      -45.83910000     -31.19300000     -70.53440000
C      -44.70380000     -31.18990000     -71.37160000
C      -43.52210000     -31.87170000     -71.02000000
C      -43.42190000     -32.34630000     -69.70180000
H      -44.50660000     -32.92430000     -67.97690000
H      -46.75460000     -30.76310000     -70.91860000
H      -42.59170000     -31.71420000     -71.66200000
H      -42.41050000     -32.55460000     -69.22830000
C      -44.82350000     -30.42930000     -72.72880000
H      -43.82690000     -30.02870000     -72.94270000
H      -45.49740000     -29.64050000     -72.72050000
C      -47.00940000     -31.83150000     -68.45420000
H      -46.83730000     -31.71390000     -67.42140000
H      -47.46340000     -30.88610000     -68.76580000
S      -45.15880000     -31.39080000     -74.30100000
S      -48.11460000     -33.26300000     -68.76650000
C      -46.72050000     -32.33870000     -73.72870000
H      -46.96310000     -32.00850000     -72.73350000
H      -47.50220000     -32.02200000     -74.40000000
C      -47.98120000     -33.76230000     -70.59160000
H      -47.15000000     -33.17810000     -70.93500000
H      -48.89650000     -33.47350000     -71.13980000
C      -47.54340000     -35.23200000     -70.71760000
H      -48.02200000     -35.77340000     -69.83680000
H      -47.95140000     -35.51120000     -71.67900000
C      -46.63300000     -33.90220000     -73.81580000
H      -46.78370000     -34.15910000     -74.92230000
H      -47.56390000     -34.15570000     -73.35470000
C      -45.37190000     -34.42920000     -73.18650000
C      -44.23330000     -34.35010000     -73.87750000
C      -45.20150000     -34.91660000     -71.82470000
H      -44.20070000     -34.07200000     -74.91160000
C      -43.88340000     -34.99330000     -71.48690000
C      -46.03740000     -35.32340000     -70.73720000
C      -45.29770000     -35.64950000     -69.61220000
S      -42.78050000     -34.67410000     -72.87230000
S      -43.58690000     -35.60230000     -69.93750000
H      -45.66830000     -35.88220000     -68.65850000
