40
Properties=species:S:1:pos:R:3 #=T CELL(abcABC):=T 1.889726e+02=T 90.00000=T Traj:=T positionsangstrom=T Step:=T 0=T Bead:=T pbc="F F F"
C      -44.68350000     -32.45730000     -68.85540000
C      -45.88080000     -31.80680000     -69.37240000
C      -45.83580000     -31.16250000     -70.63180000
C      -44.68440000     -31.26720000     -71.44620000
C      -43.50780000     -31.86250000     -70.90470000
C      -43.55220000     -32.43830000     -69.59840000
H      -44.62080000     -32.89300000     -67.85490000
H      -46.65110000     -30.43760000     -70.87680000
H      -42.72130000     -31.97840000     -71.59640000
H      -42.71070000     -33.07540000     -69.24040000
C      -44.66670000     -30.47700000     -72.72050000
H      -43.62480000     -30.04430000     -72.83250000
H      -45.40780000     -29.66390000     -72.60360000
C      -47.07870000     -31.82780000     -68.44740000
H      -46.75150000     -31.91780000     -67.36410000
H      -47.76140000     -30.97110000     -68.57160000
S      -45.32850000     -31.44950000     -74.20410000
S      -48.05780000     -33.38400000     -68.63100000
C      -46.75360000     -32.47710000     -73.81340000
H      -47.18160000     -32.29630000     -72.76650000
H      -47.59060000     -32.25170000     -74.51070000
C      -48.14330000     -33.69430000     -70.47280000
H      -47.62190000     -32.92850000     -71.04640000
H      -49.17560000     -33.77270000     -70.82600000
C      -47.57230000     -34.99060000     -70.94650000
H      -47.90720000     -35.87840000     -70.42080000
H      -47.89570000     -35.12140000     -71.96850000
C      -46.38270000     -33.96050000     -74.15600000
H      -46.12540000     -34.13110000     -75.16090000
H      -47.14690000     -34.74120000     -73.94680000
C      -45.16530000     -34.38580000     -73.28830000
C      -43.97640000     -34.07600000     -73.81830000
C      -45.09070000     -34.93210000     -71.89150000
H      -43.73240000     -33.69480000     -74.83810000
C      -43.77210000     -35.09970000     -71.53160000
C      -46.08620000     -35.21910000     -70.87840000
C      -45.46480000     -35.63700000     -69.74240000
S      -42.61800000     -34.48000000     -72.75930000
S      -43.71340000     -35.66970000     -69.86930000
H      -45.98160000     -35.65530000     -68.75270000
