40
Properties=species:S:1:pos:R:3 #=T CELL(abcABC):=T 1.889726e+02=T 90.00000=T Traj:=T positionsangstrom=T Step:=T 0=T Bead:=T pbc="F F F"
C      -44.61320000     -32.20370000     -69.05410000
C      -45.82520000     -31.72830000     -69.55980000
C      -45.85430000     -31.07620000     -70.76570000
C      -44.66570000     -30.85920000     -71.54700000
C      -43.43800000     -31.35750000     -71.10690000
C      -43.42070000     -32.02370000     -69.85950000
H      -44.60230000     -32.48170000     -67.97520000
H      -46.76940000     -30.50640000     -71.02920000
H      -42.53390000     -31.14870000     -71.51220000
H      -42.41550000     -32.26860000     -69.51440000
C      -44.87430000     -30.15530000     -72.90130000
H      -44.07380000     -29.39900000     -73.18800000
H      -45.80730000     -29.62000000     -72.91450000
C      -47.01680000     -31.65700000     -68.62610000
H      -46.73640000     -31.40290000     -67.62870000
H      -47.70040000     -30.88070000     -68.96640000
S      -45.15530000     -31.38570000     -74.31720000
S      -48.10020000     -33.19450000     -68.50320000
C      -46.65090000     -32.27050000     -73.70610000
H      -46.74820000     -31.94790000     -72.64910000
H      -47.50860000     -31.90330000     -74.26870000
C      -48.12230000     -33.71300000     -70.30180000
H      -47.73470000     -32.96580000     -71.01900000
H      -49.20170000     -33.91650000     -70.54430000
C      -47.45510000     -35.09400000     -70.52940000
H      -47.87470000     -35.71410000     -69.70590000
H      -47.82970000     -35.39910000     -71.54100000
C      -46.57780000     -33.79670000     -73.70130000
H      -46.48780000     -34.00330000     -74.77030000
H      -47.57020000     -34.20250000     -73.41580000
C      -45.32750000     -34.46590000     -73.10510000
C      -44.17880000     -34.53510000     -73.86550000
C      -45.14250000     -34.96200000     -71.78060000
H      -44.09820000     -34.08650000     -74.85060000
C      -43.83040000     -35.44570000     -71.54230000
C      -45.95630000     -35.06590000     -70.56150000
C      -45.26900000     -35.54950000     -69.49320000
S      -42.80190000     -35.19270000     -72.98480000
S      -43.66440000     -36.00360000     -69.88560000
H      -45.71600000     -35.96820000     -68.51940000
