40
Properties=species:S:1:pos:R:3 #=T CELL(abcABC):=T 1.889726e+02=T 90.00000=T Traj:=T positionsangstrom=T Step:=T 0=T Bead:=T pbc="F F F"
C      -44.90430000     -29.41390000     -72.01960000
C      -45.25980000     -30.25480000     -73.07950000
C      -44.32920000     -31.13020000     -73.52500000
C      -43.05090000     -31.29630000     -72.99540000
C      -42.78750000     -30.47540000     -71.91380000
C      -43.65570000     -29.50260000     -71.44050000
H      -45.60460000     -28.71090000     -71.64990000
H      -44.66070000     -31.78240000     -74.32300000
H      -41.80590000     -30.55170000     -71.45330000
H      -43.33700000     -28.69060000     -70.70850000
C      -42.00190000     -32.21500000     -73.48560000
H      -41.15650000     -32.39870000     -72.85330000
H      -41.61180000     -31.88760000     -74.42100000
C      -46.68040000     -30.22710000     -73.62170000
H      -46.97570000     -29.21400000     -73.87350000
H      -46.59310000     -30.96880000     -74.37930000
S      -42.75370000     -33.89510000     -73.79920000
S      -47.86650000     -30.87680000     -72.33050000
C      -43.10380000     -34.88050000     -72.25590000
H      -42.51740000     -35.79780000     -72.09030000
H      -42.86060000     -34.36280000     -71.35020000
C      -47.24100000     -32.59090000     -72.03860000
H      -46.66000000     -32.81350000     -72.93860000
H      -48.02480000     -33.36090000     -72.12680000
C      -46.37040000     -32.64130000     -70.75490000
H      -45.37570000     -32.41930000     -71.14110000
H      -46.61760000     -31.73550000     -70.16050000
C      -44.61840000     -35.27170000     -72.22030000
H      -44.87520000     -36.03480000     -72.95620000
H      -45.26820000     -34.39570000     -72.36610000
C      -45.05740000     -35.87760000     -70.89980000
C      -44.98460000     -37.18130000     -70.54950000
C      -45.89440000     -35.13070000     -69.93130000
H      -44.43400000     -37.95190000     -71.06900000
C      -46.27520000     -35.95650000     -68.91460000
C      -46.51570000     -33.80840000     -69.87010000
C      -47.28680000     -33.61910000     -68.76250000
S      -45.65290000     -37.62950000     -68.99470000
S      -47.30840000     -35.11500000     -67.76740000
H      -47.97300000     -32.84240000     -68.46880000
