40
Properties=species:S:1:pos:R:3 #=T CELL(abcABC):=T 1.889726e+02=T 90.00000=T Traj:=T positionsangstrom=T Step:=T 0=T Bead:=T pbc="F F F"
C      -44.39910000     -29.94840000     -73.09580000
C      -44.25220000     -31.26410000     -72.71920000
C      -44.15710000     -31.59710000     -71.33630000
C      -44.33020000     -30.58470000     -70.39550000
C      -44.53090000     -29.23300000     -70.77210000
C      -44.51250000     -28.91210000     -72.14260000
H      -44.69940000     -29.83960000     -74.10510000
H      -43.93040000     -32.56230000     -71.00730000
H      -44.67430000     -28.51850000     -70.01950000
H      -44.51810000     -27.82220000     -72.50900000
C      -44.33930000     -30.93570000     -68.91310000
H      -43.72230000     -30.21500000     -68.37160000
H      -43.89680000     -31.91650000     -68.76520000
C      -44.25920000     -32.38410000     -73.81130000
H      -43.51460000     -32.15660000     -74.55340000
H      -44.07280000     -33.33840000     -73.32910000
S      -45.97990000     -30.94890000     -68.18850000
S      -45.84930000     -32.39860000     -74.75010000
C      -46.44720000     -32.75000000     -68.15940000
H      -45.57690000     -33.22980000     -67.72770000
H      -47.35360000     -32.88430000     -67.66140000
C      -47.02890000     -32.69550000     -73.40220000
H      -47.92970000     -32.36190000     -73.76170000
H      -46.75560000     -32.02820000     -72.56480000
C      -47.21030000     -34.16520000     -72.95400000
H      -47.94640000     -34.07290000     -72.15630000
H      -47.81430000     -34.53620000     -73.78420000
C      -46.44650000     -33.39720000     -69.59760000
H      -46.17430000     -32.69680000     -70.40280000
H      -47.53470000     -33.54300000     -69.91100000
C      -45.81190000     -34.72670000     -69.81450000
C      -45.16720000     -35.44260000     -68.84120000
C      -45.73590000     -35.36050000     -71.12110000
H      -45.17560000     -35.28830000     -67.77800000
C      -45.03940000     -36.61320000     -71.01910000
C      -46.13010000     -35.13070000     -72.51980000
C      -45.69660000     -36.10960000     -73.36660000
S      -44.43800000     -36.93690000     -69.44960000
S      -44.79380000     -37.40100000     -72.60030000
H      -45.97920000     -36.18440000     -74.42560000
