40
Properties=species:S:1:pos:R:3 #=T CELL(abcABC):=T 1.889726e+02=T 90.00000=T Traj:=T positionsangstrom=T Step:=T 0=T Bead:=T pbc="F F F"
C      -43.73620000     -37.04010000     -71.71320000
C      -43.09710000     -36.16550000     -70.79960000
C      -42.52410000     -34.98350000     -71.27940000
C      -42.53270000     -34.69170000     -72.63910000
C      -43.14740000     -35.59260000     -73.54290000
C      -43.74230000     -36.72510000     -73.08200000
H      -44.22900000     -37.97210000     -71.35560000
H      -42.20590000     -34.15170000     -70.61940000
H      -43.14690000     -35.44640000     -74.58120000
H      -44.19840000     -37.49500000     -73.78920000
C      -41.88260000     -33.34750000     -73.07340000
H      -40.95990000     -33.47280000     -73.62630000
H      -41.58140000     -32.85260000     -72.24270000
C      -43.19090000     -36.48750000     -69.31770000
H      -43.51030000     -37.56770000     -69.20270000
H      -42.14840000     -36.50030000     -68.91350000
S      -42.89380000     -32.29560000     -74.21490000
S      -44.24430000     -35.31410000     -68.28100000
C      -44.21120000     -31.78340000     -73.12220000
H      -43.78370000     -31.79430000     -72.13610000
H      -44.44560000     -30.76910000     -73.47730000
C      -45.79290000     -35.27320000     -69.30970000
H      -46.52620000     -35.15360000     -68.52720000
H      -45.79850000     -36.22770000     -69.76920000
C      -45.74330000     -34.08750000     -70.30770000
H      -44.74550000     -33.62590000     -70.31820000
H      -45.82020000     -34.43150000     -71.34030000
C      -45.57540000     -32.49110000     -73.23640000
H      -45.41290000     -33.58510000     -72.96680000
H      -45.86130000     -32.42080000     -74.32520000
C      -46.61640000     -31.78810000     -72.42370000
C      -47.30460000     -30.68350000     -72.91490000
C      -46.97320000     -32.02870000     -71.09410000
H      -47.33500000     -30.16920000     -73.90810000
C      -48.07870000     -31.28550000     -70.63080000
C      -46.74790000     -33.08170000     -70.11110000
C      -47.53570000     -32.99340000     -68.98820000
S      -48.64130000     -30.19710000     -71.91140000
S      -48.62560000     -31.59200000     -69.03520000
H      -47.32870000     -33.45560000     -67.96320000
