40
Properties=species:S:1:pos:R:3 #=T CELL(abcABC):=T 1.889726e+02=T 90.00000=T Traj:=T positionsangstrom=T Step:=T 0=T Bead:=T pbc="F F F"
C      -45.00740000     -29.45290000     -71.67680000
C      -45.28030000     -30.19830000     -72.88850000
C      -44.31110000     -31.10900000     -73.40480000
C      -43.12220000     -31.22700000     -72.68740000
C      -42.79720000     -30.42970000     -71.55380000
C      -43.77180000     -29.57180000     -71.02990000
H      -45.92470000     -29.03970000     -71.20450000
H      -44.50250000     -31.60970000     -74.34910000
H      -41.88790000     -30.56790000     -71.03330000
H      -43.54660000     -29.11110000     -70.05170000
C      -42.03580000     -32.17260000     -73.25020000
H      -41.26390000     -32.31950000     -72.50110000
H      -41.58620000     -31.63380000     -74.12880000
C      -46.67390000     -30.17320000     -73.49390000
H      -46.97070000     -29.11180000     -73.65340000
H      -46.78690000     -30.67290000     -74.43510000
S      -42.57560000     -33.86880000     -73.77530000
S      -47.90660000     -30.76800000     -72.22760000
C      -43.49600000     -34.38790000     -72.29180000
H      -42.74240000     -34.92190000     -71.66770000
H      -43.82590000     -33.47160000     -71.81760000
C      -47.38630000     -32.53880000     -71.91600000
H      -47.03340000     -32.94760000     -72.86160000
H      -48.29420000     -33.16420000     -71.89660000
C      -46.40280000     -32.66270000     -70.76840000
H      -45.40250000     -32.83530000     -71.26150000
H      -46.33400000     -31.72500000     -70.22320000
C      -44.76080000     -35.21520000     -72.54270000
H      -44.61140000     -36.05260000     -73.20620000
H      -45.56290000     -34.64640000     -73.00720000
C      -45.19930000     -35.78950000     -71.21840000
C      -44.81470000     -37.06710000     -70.91860000
C      -45.98000000     -35.18890000     -70.13150000
H      -44.19770000     -37.65250000     -71.58340000
C      -46.16240000     -36.05360000     -69.06160000
C      -46.53760000     -33.85810000     -69.87650000
C      -47.32900000     -33.90610000     -68.74570000
S      -45.43310000     -37.66220000     -69.39610000
S      -47.20870000     -35.43660000     -67.83680000
H      -47.90250000     -33.07460000     -68.29900000
