40
Properties=species:S:1:pos:R:3 #=T CELL(abcABC):=T 1.889726e+02=T 90.00000=T Traj:=T positionsangstrom=T Step:=T 0=T Bead:=T pbc="F F F"
C      -44.95240000     -29.45490000     -71.76650000
C      -45.28080000     -30.35090000     -72.88130000
C      -44.30880000     -31.24570000     -73.37310000
C      -43.05110000     -31.22910000     -72.71920000
C      -42.74690000     -30.39350000     -71.65860000
C      -43.69470000     -29.47500000     -71.21560000
H      -45.53750000     -28.62060000     -71.60020000
H      -44.60030000     -31.95220000     -74.18990000
H      -41.72790000     -30.41930000     -71.21360000
H      -43.38970000     -28.82070000     -70.37980000
C      -41.93360000     -32.01820000     -73.30390000
H      -41.05460000     -32.21970000     -72.66900000
H      -41.53090000     -31.53620000     -74.16570000
C      -46.63960000     -30.26070000     -73.39050000
H      -46.89080000     -29.26470000     -73.73080000
H      -46.79310000     -30.95680000     -74.25680000
S      -42.51070000     -33.75540000     -73.79880000
S      -48.14670000     -30.89310000     -72.23720000
C      -43.08600000     -34.69170000     -72.23890000
H      -42.55620000     -35.61950000     -72.24040000
H      -42.79080000     -34.10550000     -71.36870000
C      -47.49960000     -32.54460000     -71.71830000
H      -47.21030000     -33.14740000     -72.59960000
H      -48.34070000     -32.92550000     -71.14710000
C      -46.44430000     -32.56950000     -70.64570000
H      -45.48120000     -32.51000000     -71.08210000
H      -46.59150000     -31.75620000     -69.93630000
C      -44.62110000     -34.94650000     -72.36360000
H      -44.67770000     -35.39300000     -73.40970000
H      -45.09270000     -33.95470000     -72.38920000
C      -45.21270000     -35.80100000     -71.23640000
C      -44.84800000     -37.08360000     -70.95830000
C      -46.00510000     -35.18060000     -70.12420000
H      -44.24170000     -37.73780000     -71.57620000
C      -46.24470000     -36.08120000     -69.13650000
C      -46.55600000     -33.84950000     -69.88460000
C      -47.28940000     -33.86830000     -68.71230000
S      -45.51470000     -37.63980000     -69.40070000
S      -47.26370000     -35.44780000     -67.87950000
H      -47.74020000     -33.09770000     -68.20770000
