40
Properties=species:S:1:pos:R:3 #=T CELL(abcABC):=T 1.889726e+02=T 90.00000=T Traj:=T positionsangstrom=T Step:=T 0=T Bead:=T pbc="F F F"
C      -45.08050000     -29.62540000     -72.09870000
C      -45.28530000     -30.65430000     -73.04030000
C      -44.21250000     -31.47210000     -73.42440000
C      -42.92700000     -31.26390000     -72.80890000
C      -42.77560000     -30.29980000     -71.81090000
C      -43.86530000     -29.49000000     -71.43310000
H      -45.88940000     -28.92000000     -71.73600000
H      -44.18540000     -32.23410000     -74.18700000
H      -41.85670000     -30.22920000     -71.24830000
H      -43.77640000     -28.70060000     -70.71220000
C      -41.74980000     -32.12350000     -73.11170000
H      -41.04050000     -32.02730000     -72.32640000
H      -41.17920000     -31.81980000     -73.97220000
C      -46.72810000     -30.80810000     -73.51390000
H      -47.00800000     -29.84600000     -74.03480000
H      -46.77920000     -31.60880000     -74.26190000
S      -42.18730000     -33.86100000     -73.75370000
S      -48.11630000     -30.82550000     -72.26810000
C      -43.00700000     -34.92160000     -72.54050000
H      -42.99930000     -35.83200000     -73.14390000
H      -42.38510000     -35.09370000     -71.65290000
C      -47.78200000     -32.42360000     -71.42810000
H      -47.55150000     -33.15700000     -72.23370000
H      -48.73670000     -32.85160000     -71.01290000
C      -46.62170000     -32.41980000     -70.33940000
H      -45.64410000     -32.25850000     -70.80040000
H      -46.76290000     -31.60870000     -69.63800000
C      -44.42500000     -34.52210000     -72.10190000
H      -44.95740000     -34.35430000     -73.02940000
H      -44.46500000     -33.51680000     -71.63870000
C      -45.07020000     -35.44870000     -71.09600000
C      -44.88520000     -36.83700000     -71.01230000
C      -45.95610000     -34.96440000     -70.01750000
H      -44.25630000     -37.41950000     -71.72020000
C      -46.24180000     -35.99320000     -69.08050000
C      -46.67190000     -33.74730000     -69.62500000
C      -47.47860000     -33.91860000     -68.53330000
S      -45.52860000     -37.53040000     -69.54950000
S      -47.42990000     -35.53990000     -67.88240000
H      -48.14970000     -33.22290000     -68.14380000
