40
Properties=species:S:1:pos:R:3 #=T CELL(abcABC):=T 1.889726e+02=T 90.00000=T Traj:=T positionsangstrom=T Step:=T 0=T Bead:=T pbc="F F F"
C      -45.36140000     -31.53120000     -70.11550000
C      -46.70730000     -31.38820000     -70.45160000
C      -47.02630000     -31.28070000     -71.80020000
C      -46.00300000     -31.29910000     -72.79880000
C      -44.64700000     -31.13180000     -72.40030000
C      -44.36480000     -31.37860000     -71.04360000
H      -45.07700000     -31.90890000     -69.14390000
H      -48.09770000     -31.30640000     -72.12540000
H      -43.84350000     -31.04020000     -73.14420000
H      -43.34390000     -31.51250000     -70.70010000
C      -46.33350000     -31.30100000     -74.25910000
H      -45.70520000     -30.55560000     -74.78150000
H      -47.35330000     -30.87670000     -74.36030000
C      -47.86510000     -31.52070000     -69.43630000
H      -47.74250000     -30.84090000     -68.57660000
H      -48.78930000     -31.34110000     -70.03810000
S      -46.23080000     -32.99700000     -75.15300000
S      -47.82490000     -33.16680000     -68.58570000
C      -46.51390000     -34.19170000     -73.73810000
H      -46.72540000     -33.61550000     -72.86680000
H      -47.41000000     -34.60940000     -74.02670000
C      -47.91180000     -34.33770000     -70.00020000
H      -47.90030000     -33.74430000     -70.95210000
H      -48.81570000     -34.89790000     -69.99290000
C      -46.78080000     -35.42590000     -70.17110000
H      -47.02740000     -36.24890000     -69.52560000
H      -47.04090000     -35.79710000     -71.21250000
C      -45.33990000     -35.14340000     -73.47920000
H      -44.89360000     -35.41050000     -74.37570000
H      -45.74090000     -36.06420000     -73.16580000
C      -44.30780000     -34.72420000     -72.50780000
C      -43.04770000     -34.46670000     -72.97630000
C      -44.37650000     -34.82120000     -71.04210000
H      -42.80330000     -34.24570000     -74.04580000
C      -43.09400000     -34.54750000     -70.49170000
C      -45.36710000     -35.00070000     -70.00680000
C      -44.78740000     -34.71320000     -68.77830000
S      -41.89950000     -34.13430000     -71.65980000
S      -43.09320000     -34.29710000     -68.77100000
H      -45.26130000     -34.63330000     -67.79430000
