40
Properties=species:S:1:pos:R:3 #=T CELL(abcABC):=T 1.889726e+02=T 90.00000=T Traj:=T positionsangstrom=T Step:=T 0=T Bead:=T pbc="F F F"
C      -45.00700000     -31.39330000     -69.62690000
C      -46.34670000     -31.53180000     -70.10550000
C      -46.61320000     -31.37210000     -71.48830000
C      -45.63660000     -31.20120000     -72.45940000
C      -44.31120000     -31.21120000     -72.00770000
C      -44.03030000     -31.22360000     -70.62340000
H      -44.76600000     -31.28730000     -68.56480000
H      -47.65130000     -31.36300000     -71.81400000
H      -43.44880000     -30.99570000     -72.64400000
H      -42.95440000     -31.14950000     -70.49770000
C      -45.97810000     -31.22880000     -73.93310000
H      -45.49120000     -30.43890000     -74.49420000
H      -47.01190000     -30.99900000     -74.07790000
C      -47.52880000     -31.63780000     -69.10610000
H      -47.09720000     -31.19080000     -68.18690000
H      -48.32210000     -31.08940000     -69.64760000
S      -45.49430000     -32.79580000     -74.71760000
S      -48.23900000     -33.34850000     -68.82340000
C      -46.59210000     -34.03260000     -73.81530000
H      -46.89710000     -33.52660000     -72.93320000
H      -47.49440000     -34.24150000     -74.42750000
C      -47.93040000     -34.29810000     -70.38790000
H      -47.70610000     -33.56230000     -71.17920000
H      -48.86760000     -34.74760000     -70.61500000
C      -46.92850000     -35.44690000     -70.18570000
H      -47.21520000     -36.09960000     -69.32690000
H      -46.97000000     -36.10700000     -71.02030000
C      -45.84470000     -35.39640000     -73.49850000
H      -45.59110000     -35.85460000     -74.43710000
H      -46.52960000     -36.14590000     -73.12130000
C      -44.60750000     -35.12760000     -72.61350000
C      -43.46890000     -34.82280000     -73.28000000
C      -44.62490000     -34.88270000     -71.21770000
H      -43.30670000     -34.64480000     -74.29200000
C      -43.35490000     -34.38150000     -70.83060000
C      -45.49160000     -35.00940000     -70.08010000
C      -44.95620000     -34.71520000     -68.88840000
S      -42.27630000     -34.10500000     -72.13080000
S      -43.27940000     -34.09740000     -69.05120000
H      -45.55250000     -34.65760000     -68.00950000
