40
Properties=species:S:1:pos:R:3 #=T CELL(abcABC):=T 1.889726e+02=T 90.00000=T Traj:=T positionsangstrom=T Step:=T 0=T Bead:=T pbc="F F F"
C      -45.05220000     -31.38540000     -69.78420000
C      -46.37640000     -31.53140000     -70.19860000
C      -46.73500000     -31.39440000     -71.55620000
C      -45.76570000     -31.25210000     -72.55420000
C      -44.41480000     -31.06680000     -72.12440000
C      -44.07690000     -31.05170000     -70.75550000
H      -44.74250000     -31.57050000     -68.75910000
H      -47.77740000     -31.50660000     -71.88560000
H      -43.59350000     -30.93750000     -72.84230000
H      -43.00390000     -30.88980000     -70.48510000
C      -46.16270000     -31.18150000     -73.97290000
H      -45.60940000     -30.45180000     -74.50850000
H      -47.26060000     -30.96120000     -73.98370000
C      -47.45990000     -31.64480000     -69.06150000
H      -47.04710000     -31.36640000     -68.09870000
H      -48.34300000     -31.01020000     -69.29820000
S      -45.83580000     -32.84310000     -74.92550000
S      -48.16760000     -33.34300000     -68.83810000
C      -46.62450000     -34.06800000     -73.78920000
H      -46.91380000     -33.55140000     -72.88670000
H      -47.57890000     -34.46320000     -74.23520000
C      -47.93080000     -34.44420000     -70.31040000
H      -47.65670000     -33.89830000     -71.16960000
H      -48.95720000     -34.89980000     -70.42100000
C      -46.82830000     -35.54300000     -70.12450000
H      -47.12340000     -36.06610000     -69.17900000
H      -46.85670000     -36.25880000     -70.93200000
C      -45.69760000     -35.29120000     -73.53590000
H      -45.31140000     -35.73200000     -74.42440000
H      -46.44990000     -35.91680000     -73.01770000
C      -44.51370000     -34.96290000     -72.63680000
C      -43.33630000     -34.59430000     -73.16790000
C      -44.50590000     -34.83400000     -71.16090000
H      -43.18170000     -34.64980000     -74.23270000
C      -43.24610000     -34.43320000     -70.71720000
C      -45.42330000     -35.02090000     -70.03210000
C      -44.86320000     -34.66530000     -68.85860000
S      -42.11150000     -34.26780000     -71.96080000
S      -43.26330000     -34.07690000     -68.95670000
H      -45.46590000     -34.64370000     -67.96390000
