40
Properties=species:S:1:pos:R:3 #=T CELL(abcABC):=T 1.889726e+02=T 90.00000=T Traj:=T positionsangstrom=T Step:=T 0=T Bead:=T pbc="F F F"
C      -45.12050000     -30.73800000     -70.31890000
C      -46.46710000     -31.23340000     -70.33060000
C      -46.94030000     -31.55530000     -71.62080000
C      -46.16480000     -31.40950000     -72.80190000
C      -44.91780000     -30.81470000     -72.73500000
C      -44.37160000     -30.52370000     -71.48260000
H      -44.60660000     -30.56830000     -69.38490000
H      -47.96660000     -31.76520000     -71.81920000
H      -44.40260000     -30.51280000     -73.70450000
H      -43.45500000     -29.91770000     -71.49250000
C      -46.72400000     -31.61670000     -74.21470000
H      -46.50180000     -30.76800000     -74.89680000
H      -47.80730000     -31.61110000     -74.25620000
C      -47.27850000     -31.46940000     -69.10550000
H      -46.78300000     -30.91170000     -68.35020000
H      -48.26870000     -31.05880000     -69.28100000
S      -46.01380000     -33.05420000     -74.96760000
S      -47.52610000     -33.23910000     -68.59120000
C      -46.66930000     -34.46490000     -73.95400000
H      -47.39700000     -33.94710000     -73.25680000
H      -47.34280000     -35.00080000     -74.64990000
C      -47.66930000     -34.26940000     -70.16680000
H      -47.36970000     -33.65410000     -71.00730000
H      -48.70630000     -34.51790000     -70.45230000
C      -46.82480000     -35.62830000     -70.18330000
H      -47.30730000     -36.22120000     -69.38600000
H      -47.02970000     -36.14190000     -71.16650000
C      -45.57700000     -35.37840000     -73.34420000
H      -45.07770000     -35.85780000     -74.17730000
H      -46.02040000     -36.15030000     -72.82520000
C      -44.49180000     -34.76070000     -72.43240000
C      -43.48780000     -34.07300000     -72.95340000
C      -44.38630000     -34.95930000     -70.97030000
H      -43.25940000     -33.95730000     -74.01250000
C      -43.17900000     -34.58160000     -70.48060000
C      -45.36580000     -35.33680000     -69.90460000
C      -44.74330000     -35.13160000     -68.68900000
S      -42.20540000     -33.76070000     -71.75960000
S      -43.06990000     -34.65750000     -68.74550000
H      -45.21030000     -35.47280000     -67.78000000
