40
Properties=species:S:1:pos:R:3 #=T CELL(abcABC):=T 1.889726e+02=T 90.00000=T Traj:=T positionsangstrom=T Step:=T 0=T Bead:=T pbc="F F F"
C      -45.03320000     -30.69950000     -70.37780000
C      -46.33230000     -31.25620000     -70.40190000
C      -46.82730000     -31.54120000     -71.68300000
C      -46.13230000     -31.19420000     -72.85540000
C      -44.95260000     -30.44050000     -72.78860000
C      -44.39300000     -30.28740000     -71.53050000
H      -44.62180000     -30.41010000     -69.41770000
H      -47.75420000     -32.07300000     -71.80330000
H      -44.29410000     -30.22190000     -73.69880000
H      -43.37600000     -29.87340000     -71.52290000
C      -46.78820000     -31.57080000     -74.20950000
H      -46.67110000     -30.82480000     -74.99060000
H      -47.80510000     -31.91440000     -73.99390000
C      -47.02680000     -31.53830000     -69.12370000
H      -46.44930000     -31.17170000     -68.29270000
H      -48.02600000     -31.01780000     -69.01110000
S      -45.99080000     -33.10220000     -74.96270000
S      -47.47770000     -33.35720000     -68.58740000
C      -46.63580000     -34.45680000     -73.89340000
H      -47.07880000     -34.04860000     -73.01650000
H      -47.38680000     -34.92610000     -74.53600000
C      -47.64170000     -34.44180000     -70.05730000
H      -47.17550000     -33.89880000     -70.88130000
H      -48.66610000     -34.75860000     -70.20640000
C      -46.86480000     -35.73570000     -69.77920000
H      -47.03450000     -36.22170000     -68.80370000
H      -47.36160000     -36.48430000     -70.45050000
C      -45.59100000     -35.53820000     -73.37650000
H      -45.08660000     -35.95730000     -74.31580000
H      -46.17190000     -36.45010000     -72.95370000
C      -44.51940000     -34.92790000     -72.48010000
C      -43.41900000     -34.31460000     -73.03380000
C      -44.58010000     -34.90550000     -71.02200000
H      -43.31370000     -34.04940000     -74.08780000
C      -43.39100000     -34.33710000     -70.50050000
C      -45.37320000     -35.47470000     -69.91560000
C      -44.69190000     -35.34460000     -68.68080000
S      -42.33250000     -33.64860000     -71.77500000
S      -43.11380000     -34.52680000     -68.80030000
H      -45.28030000     -35.45490000     -67.71200000
