40
Properties=species:S:1:pos:R:3 #=T CELL(abcABC):=T 1.889726e+02=T 90.00000=T Traj:=T positionsangstrom=T Step:=T 0=T Bead:=T pbc="F F F"
C      -45.17960000     -31.31010000     -70.07350000
C      -46.50220000     -31.55060000     -70.38650000
C      -46.85070000     -31.60120000     -71.72700000
C      -45.86650000     -31.31550000     -72.69370000
C      -44.48030000     -31.17250000     -72.40970000
C      -44.18420000     -31.10350000     -71.02760000
H      -44.82810000     -31.10910000     -69.09000000
H      -47.89860000     -31.55560000     -72.02640000
H      -43.80160000     -31.10780000     -73.25540000
H      -43.18920000     -30.77110000     -70.64610000
C      -46.28850000     -31.23910000     -74.09000000
H      -45.60850000     -30.65880000     -74.70440000
H      -47.32250000     -30.86380000     -74.22460000
C      -47.59540000     -31.69810000     -69.34640000
H      -47.40570000     -31.07700000     -68.47470000
H      -48.49270000     -31.20230000     -69.69730000
S      -46.13780000     -32.86790000     -74.93040000
S      -48.04610000     -33.38830000     -68.73120000
C      -46.69790000     -34.15350000     -73.72190000
H      -47.09390000     -33.82740000     -72.70300000
H      -47.45000000     -34.77350000     -74.21770000
C      -47.90950000     -34.38960000     -70.26500000
H      -47.89970000     -33.67590000     -71.11400000
H      -48.87170000     -34.94320000     -70.40270000
C      -46.76370000     -35.39090000     -70.17990000
H      -46.85240000     -35.96880000     -69.29170000
H      -46.68690000     -36.12800000     -71.00450000
C      -45.63660000     -35.19890000     -73.34220000
H      -45.21120000     -35.73300000     -74.29250000
H      -46.14990000     -35.94470000     -72.65660000
C      -44.42240000     -34.63780000     -72.54540000
C      -43.13190000     -34.67040000     -72.99290000
C      -44.41890000     -34.53880000     -71.10900000
H      -42.85500000     -34.94450000     -74.03310000
C      -43.21190000     -34.24160000     -70.59330000
C      -45.38370000     -34.71590000     -70.05870000
C      -44.86760000     -34.55540000     -68.79680000
S      -41.96880000     -34.33420000     -71.76460000
S      -43.08180000     -34.25780000     -68.83090000
H      -45.32230000     -34.89560000     -67.84500000
