40
Properties=species:S:1:pos:R:3 #=T CELL(abcABC):=T 1.889726e+02=T 90.00000=T Traj:=T positionsangstrom=T Step:=T 0=T Bead:=T pbc="F F F"
C      -45.24820000     -31.05790000     -69.71090000
C      -46.61280000     -31.39730000     -69.82630000
C      -47.27400000     -31.45030000     -71.10430000
C      -46.44860000     -31.44940000     -72.24780000
C      -45.06230000     -31.22040000     -72.13580000
C      -44.46370000     -31.05720000     -70.84050000
H      -44.92680000     -30.95070000     -68.68700000
H      -48.33120000     -31.66240000     -71.04930000
H      -44.61040000     -31.15950000     -73.14040000
H      -43.35330000     -30.74800000     -70.76250000
C      -47.02310000     -31.64430000     -73.59730000
H      -46.72160000     -30.70720000     -74.17420000
H      -48.15560000     -31.58980000     -73.45560000
C      -47.37840000     -31.59700000     -68.55130000
H      -46.83480000     -31.26930000     -67.66420000
H      -48.34140000     -31.00780000     -68.63640000
S      -46.40560000     -33.12520000     -74.46650000
S      -47.95270000     -33.32110000     -68.30350000
C      -47.18890000     -34.43810000     -73.53100000
H      -47.70420000     -33.89730000     -72.76440000
H      -47.96190000     -34.91040000     -74.13250000
C      -47.20680000     -34.43790000     -69.55090000
H      -46.99610000     -33.85170000     -70.46990000
H      -47.93260000     -35.24720000     -69.70630000
C      -45.92010000     -35.15580000     -69.21280000
H      -45.74000000     -35.06230000     -68.16270000
H      -46.03740000     -36.20040000     -69.44460000
C      -46.31010000     -35.63630000     -72.97310000
H      -46.30700000     -36.51340000     -73.70340000
H      -46.92190000     -35.94730000     -72.09190000
C      -44.82380000     -35.14870000     -72.60280000
C      -43.86150000     -35.11130000     -73.58050000
C      -44.24670000     -34.70250000     -71.32560000
H      -44.14440000     -35.20540000     -74.63340000
C      -42.96690000     -34.20650000     -71.52620000
C      -44.63090000     -34.58550000     -69.90920000
C      -43.58540000     -34.03420000     -69.17250000
S      -42.40080000     -34.34830000     -73.18610000
S      -42.09640000     -33.72060000     -70.06310000
H      -43.72110000     -33.75280000     -68.13750000
