40
Properties=species:S:1:pos:R:3 #=T CELL(abcABC):=T 1.889726e+02=T 90.00000=T Traj:=T positionsangstrom=T Step:=T 0=T Bead:=T pbc="F F F"
C      -45.29440000     -31.20060000     -70.15750000
C      -46.62780000     -31.46330000     -70.53020000
C      -47.01060000     -31.42110000     -71.86240000
C      -46.05100000     -31.35880000     -72.89570000
C      -44.71180000     -31.27880000     -72.50320000
C      -44.36300000     -31.25060000     -71.15290000
H      -45.00240000     -31.07830000     -69.10120000
H      -48.10640000     -31.48050000     -72.05420000
H      -44.00230000     -31.36210000     -73.31200000
H      -43.28090000     -31.06160000     -70.86190000
C      -46.47840000     -31.42310000     -74.32950000
H      -45.68770000     -30.91790000     -74.90920000
H      -47.53490000     -31.18400000     -74.37640000
C      -47.64870000     -31.68080000     -69.42690000
H      -47.79650000     -30.89650000     -68.70240000
H      -48.68110000     -31.82600000     -69.81470000
S      -46.40070000     -33.14280000     -75.03850000
S      -47.22540000     -33.19510000     -68.37800000
C      -46.86890000     -34.27270000     -73.63750000
H      -47.05530000     -33.62380000     -72.80220000
H      -47.74340000     -34.73460000     -73.91790000
C      -47.67520000     -34.41180000     -69.67440000
H      -47.67730000     -33.98180000     -70.69020000
H      -48.64780000     -34.85160000     -69.43240000
C      -46.63500000     -35.62680000     -69.73130000
H      -46.89630000     -36.28890000     -68.89810000
H      -46.91260000     -36.23680000     -70.57200000
C      -45.83700000     -35.34760000     -73.28730000
H      -45.48750000     -35.88910000     -74.17010000
H      -46.29450000     -36.07830000     -72.59900000
C      -44.57260000     -34.77380000     -72.50560000
C      -43.59370000     -34.09380000     -73.09690000
C      -44.44170000     -34.75030000     -70.98840000
H      -43.39550000     -33.99020000     -74.12960000
C      -43.18800000     -34.27220000     -70.69250000
C      -45.20150000     -35.22720000     -69.84320000
C      -44.42170000     -35.00810000     -68.75310000
S      -42.25040000     -33.60440000     -72.01030000
S      -42.83530000     -34.33970000     -68.98840000
H      -44.71330000     -35.29580000     -67.77330000
