40
Properties=species:S:1:pos:R:3 #=T CELL(abcABC):=T 1.889726e+02=T 90.00000=T Traj:=T positionsangstrom=T Step:=T 0=T Bead:=T pbc="F F F"
C      -43.77910000     -30.16610000     -72.23310000
C      -44.41360000     -30.79970000     -73.33440000
C      -43.83400000     -31.96200000     -73.85970000
C      -42.60950000     -32.48560000     -73.31780000
C      -41.96790000     -31.73120000     -72.39260000
C      -42.54430000     -30.59240000     -71.82960000
H      -44.27810000     -29.30950000     -71.74860000
H      -44.28440000     -32.64290000     -74.62160000
H      -41.05270000     -32.09940000     -71.95380000
H      -41.98210000     -30.13090000     -70.96360000
C      -42.06710000     -33.83680000     -73.69430000
H      -41.15400000     -33.72880000     -74.28190000
H      -42.78790000     -34.40940000     -74.35190000
C      -45.65380000     -30.26990000     -73.95960000
H      -45.59220000     -29.16620000     -74.08230000
H      -45.69690000     -30.62540000     -74.98720000
S      -41.67390000     -34.76200000     -72.10840000
S      -47.27580000     -30.56970000     -73.12070000
C      -43.27730000     -35.70660000     -71.75370000
H      -43.60250000     -36.22380000     -72.68750000
H      -43.01330000     -36.48620000     -70.99740000
C      -46.97040000     -32.16480000     -72.27830000
H      -46.54890000     -32.94530000     -72.88370000
H      -47.96560000     -32.62720000     -72.06280000
C      -46.34230000     -31.99700000     -70.86550000
H      -45.24740000     -32.01690000     -70.76610000
H      -46.59660000     -30.97320000     -70.54000000
C      -44.38300000     -34.70580000     -71.35150000
H      -44.76410000     -34.33130000     -72.23990000
H      -43.95010000     -33.96720000     -70.67650000
C      -45.53490000     -35.32040000     -70.54490000
C      -45.70400000     -36.64310000     -70.21270000
C      -46.48500000     -34.47320000     -69.86220000
H      -45.18480000     -37.54420000     -70.51300000
C      -47.32950000     -35.17420000     -69.02100000
C      -46.87060000     -33.04280000     -69.87630000
C      -47.89410000     -32.73750000     -69.01780000
S      -47.06160000     -36.91830000     -69.01140000
S      -48.58990000     -34.23260000     -68.20530000
H      -48.29180000     -31.74390000     -68.73360000
