40
Properties=species:S:1:pos:R:3 #=T CELL(abcABC):=T 1.889726e+02=T 90.00000=T Traj:=T positionsangstrom=T Step:=T 0=T Bead:=T pbc="F F F"
C      -45.20930000     -31.01880000     -69.52830000
C      -46.46600000     -31.58840000     -69.51270000
C      -47.08670000     -31.63930000     -70.74220000
C      -46.40500000     -31.49280000     -71.93660000
C      -45.14620000     -30.89020000     -71.96570000
C      -44.56820000     -30.68550000     -70.70520000
H      -44.67150000     -31.02030000     -68.63720000
H      -48.10560000     -31.96080000     -70.78890000
H      -44.49540000     -30.84710000     -72.83900000
H      -43.67140000     -30.09410000     -70.46240000
C      -47.15040000     -31.65940000     -73.25770000
H      -46.78580000     -30.89760000     -73.89840000
H      -48.23470000     -31.48210000     -73.15860000
C      -47.11160000     -32.02450000     -68.22590000
H      -46.53700000     -31.80660000     -67.33060000
H      -47.96500000     -31.35610000     -68.05740000
S      -46.70830000     -33.14850000     -74.23830000
S      -47.49450000     -33.82300000     -67.99530000
C      -47.40410000     -34.55140000     -73.30090000
H      -47.85850000     -34.06610000     -72.37330000
H      -48.18500000     -35.08350000     -73.84890000
C      -46.97930000     -34.65260000     -69.56880000
H      -46.90140000     -33.92160000     -70.35090000
H      -47.79410000     -35.26880000     -69.86770000
C      -45.58670000     -35.38940000     -69.41150000
H      -45.17850000     -35.53500000     -68.37450000
H      -45.53920000     -36.41830000     -69.84760000
C      -46.34950000     -35.57390000     -72.72060000
H      -46.33810000     -36.56980000     -73.12040000
H      -46.60800000     -35.70350000     -71.70350000
C      -44.94990000     -35.06390000     -72.77930000
C      -44.22110000     -34.89350000     -73.89320000
C      -44.24010000     -34.62450000     -71.57300000
H      -44.33030000     -35.13720000     -74.98110000
C      -43.02160000     -34.07950000     -71.89090000
C      -44.46580000     -34.62900000     -70.17310000
C      -43.42400000     -34.01510000     -69.49890000
S      -42.70130000     -34.05260000     -73.60050000
S      -42.19440000     -33.39860000     -70.53780000
H      -43.37490000     -33.77230000     -68.46280000
