40
Properties=species:S:1:pos:R:3 #=T CELL(abcABC):=T 1.889726e+02=T 90.00000=T Traj:=T positionsangstrom=T Step:=T 0=T Bead:=T pbc="F F F"
C      -43.67370000     -31.89810000     -68.43010000
C      -45.08380000     -31.84170000     -68.34410000
C      -45.79350000     -31.02940000     -69.21600000
C      -45.11440000     -30.18330000     -70.11920000
C      -43.73230000     -30.27940000     -70.23830000
C      -43.03340000     -31.08950000     -69.32960000
H      -43.13470000     -32.53800000     -67.74730000
H      -46.87400000     -30.75280000     -68.89400000
H      -43.21300000     -29.63770000     -70.96410000
H      -41.92600000     -31.17410000     -69.43910000
C      -45.87120000     -29.16180000     -70.91310000
H      -45.27620000     -28.54210000     -71.62830000
H      -46.42180000     -28.46840000     -70.30920000
C      -45.83290000     -32.72370000     -67.32650000
H      -45.16490000     -33.18220000     -66.61560000
H      -46.56420000     -32.10760000     -66.73340000
S      -47.19440000     -30.13590000     -72.03750000
S      -46.83570000     -34.04720000     -68.11860000
C      -46.09280000     -31.38270000     -72.94970000
H      -46.60630000     -31.41780000     -73.91430000
H      -45.08450000     -30.89770000     -72.99620000
C      -45.73800000     -34.59360000     -69.46330000
H      -44.89080000     -35.17960000     -69.14210000
H      -45.23460000     -33.78020000     -69.98720000
C      -46.43070000     -35.50670000     -70.42920000
H      -46.68630000     -36.39040000     -69.85560000
H      -47.46220000     -35.18670000     -70.78300000
C      -46.04300000     -32.72110000     -72.26860000
H      -47.00400000     -33.18540000     -71.92130000
H      -45.51470000     -32.60780000     -71.30070000
C      -45.34000000     -33.77910000     -73.09660000
C      -44.86000000     -33.52830000     -74.34930000
C      -45.17220000     -35.13260000     -72.71540000
H      -44.68150000     -32.59110000     -74.86670000
C      -44.36920000     -35.79230000     -73.62300000
C      -45.50790000     -35.96450000     -71.55060000
C      -45.11770000     -37.29370000     -71.72600000
S      -44.01260000     -34.95360000     -75.03610000
S      -44.16140000     -37.47370000     -73.21540000
H      -45.19270000     -38.16120000     -71.01390000
