40
Properties=species:S:1:pos:R:3 #=T CELL(abcABC):=T 1.889726e+02=T 90.00000=T Traj:=T positionsangstrom=T Step:=T 0=T Bead:=T pbc="F F F"
C      -49.55370000     -33.08020000     -71.56160000
C      -48.44820000     -32.68250000     -72.41830000
C      -47.53480000     -31.69570000     -71.98840000
C      -47.76550000     -30.91060000     -70.86540000
C      -48.92770000     -31.28920000     -70.06870000
C      -49.77780000     -32.32840000     -70.42550000
H      -50.34160000     -33.67420000     -71.97630000
H      -46.79000000     -31.41660000     -72.64200000
H      -49.12890000     -30.78800000     -69.13020000
H      -50.62210000     -32.57510000     -69.87960000
C      -46.88540000     -29.69970000     -70.46950000
H      -47.51480000     -28.87910000     -70.08970000
H      -46.32670000     -29.45600000     -71.43120000
C      -48.17340000     -33.48040000     -73.59390000
H      -49.00530000     -34.11210000     -73.86270000
H      -47.85380000     -33.10060000     -74.50100000
S      -45.80520000     -30.05200000     -69.04220000
S      -46.81460000     -34.71890000     -73.13000000
C      -44.38110000     -31.02870000     -69.65980000
H      -43.82690000     -30.41700000     -70.38560000
H      -43.82010000     -31.06100000     -68.71110000
C      -47.01920000     -35.19490000     -71.30080000
H      -47.83690000     -35.92930000     -71.31250000
H      -47.40270000     -34.31530000     -70.69880000
C      -45.80670000     -35.86360000     -70.66250000
H      -45.73640000     -35.40700000     -69.60510000
H      -45.94310000     -36.92290000     -70.74770000
C      -44.65000000     -32.38540000     -70.38260000
H      -45.39520000     -32.03140000     -71.12420000
H      -45.22390000     -32.97270000     -69.65080000
C      -43.46520000     -33.14010000     -70.92790000
C      -42.24490000     -32.57880000     -71.17770000
C      -43.48020000     -34.47180000     -71.45770000
H      -41.94460000     -31.64170000     -70.70060000
C      -42.19570000     -34.95930000     -71.78210000
C      -44.37900000     -35.66510000     -71.32640000
C      -43.71320000     -36.84520000     -71.70940000
S      -41.04000000     -33.69430000     -71.67260000
S      -42.01290000     -36.66010000     -72.11300000
H      -44.17110000     -37.85670000     -71.80220000
