40
Properties=species:S:1:pos:R:3 #=T CELL(abcABC):=T 1.889726e+02=T 90.00000=T Traj:=T positionsangstrom=T Step:=T 0=T Bead:=T pbc="F F F"
C      -42.55740000     -32.81120000     -73.79130000
C      -43.29000000     -31.66600000     -73.52400000
C      -43.13480000     -30.97350000     -72.29570000
C      -42.23420000     -31.43010000     -71.33650000
C      -41.57290000     -32.62540000     -71.62500000
C      -41.66050000     -33.23380000     -72.82490000
H      -42.48350000     -33.19170000     -74.76840000
H      -43.47130000     -29.87840000     -72.21220000
H      -40.92100000     -33.09030000     -70.91070000
H      -41.12650000     -34.09930000     -73.09030000
C      -42.13570000     -30.84520000     -69.96030000
H      -41.77940000     -29.84390000     -70.02740000
H      -41.40710000     -31.39300000     -69.30470000
C      -44.28880000     -31.21590000     -74.54230000
H      -44.02340000     -30.18000000     -74.88580000
H      -44.39730000     -31.86840000     -75.42220000
S      -43.79710000     -30.83750000     -69.05230000
S      -46.02390000     -31.17250000     -73.73400000
C      -44.27160000     -32.62920000     -69.26750000
H      -43.53900000     -32.98080000     -70.04210000
H      -44.03550000     -33.09360000     -68.37530000
C      -46.22250000     -32.94510000     -73.34560000
H      -45.47010000     -33.50870000     -72.71590000
H      -46.11720000     -33.40680000     -74.31050000
C      -47.61390000     -33.32620000     -72.80940000
H      -47.94460000     -32.56860000     -72.15690000
H      -48.24710000     -33.34620000     -73.69540000
C      -45.70460000     -32.67220000     -69.71420000
H      -45.81280000     -32.09630000     -70.59020000
H      -46.25270000     -32.12170000     -68.96360000
C      -46.21750000     -34.11060000     -69.73140000
C      -45.82600000     -34.97960000     -68.69740000
C      -47.05650000     -34.82030000     -70.67670000
H      -45.17570000     -34.62630000     -67.83800000
C      -47.29860000     -36.15910000     -70.28080000
C      -47.56960000     -34.61140000     -72.02640000
C      -48.31240000     -35.65690000     -72.52050000
S      -46.64920000     -36.56260000     -68.67350000
S      -48.41600000     -36.94840000     -71.34930000
H      -48.98320000     -35.68130000     -73.40950000
