40
Properties=species:S:1:pos:R:3 #=T CELL(abcABC):=T 1.889726e+02=T 90.00000=T Traj:=T positionsangstrom=T Step:=T 0=T Bead:=T pbc="F F F"
C      -43.05190000     -30.75820000     -73.75610000
C      -44.32500000     -31.35330000     -73.94150000
C      -44.42070000     -32.75190000     -74.05270000
C      -43.19530000     -33.48970000     -73.89250000
C      -41.96390000     -32.90790000     -73.67570000
C      -41.90540000     -31.51980000     -73.60830000
H      -42.96680000     -29.62310000     -73.62110000
H      -45.34420000     -33.31240000     -74.27210000
H      -41.00280000     -33.45450000     -73.57700000
H      -40.91580000     -31.10500000     -73.35020000
C      -43.19380000     -34.99410000     -74.05340000
H      -42.56250000     -35.33800000     -74.91500000
H      -44.15250000     -35.54440000     -74.20030000
C      -45.51690000     -30.49590000     -74.03660000
H      -45.42290000     -29.65010000     -74.70540000
H      -46.35410000     -31.06990000     -74.22100000
S      -42.32210000     -35.73030000     -72.55290000
S      -45.97260000     -29.50350000     -72.41910000
C      -43.74980000     -36.11230000     -71.49220000
H      -44.57620000     -36.46430000     -72.18590000
H      -43.47100000     -36.93730000     -70.92140000
C      -46.77090000     -30.89790000     -71.40940000
H      -47.39850000     -31.51320000     -72.08620000
H      -47.42180000     -30.31670000     -70.82380000
C      -45.79730000     -31.82560000     -70.61450000
H      -45.36070000     -32.45690000     -71.36580000
H      -45.03490000     -31.09940000     -70.16030000
C      -44.28210000     -34.93300000     -70.66950000
H      -44.40880000     -34.06390000     -71.29300000
H      -43.64550000     -34.74700000     -69.80090000
C      -45.62930000     -35.20790000     -70.03930000
C      -46.03620000     -36.43640000     -69.49730000
C      -46.49850000     -34.17860000     -69.52710000
H      -45.47410000     -37.38760000     -69.47250000
C      -47.55390000     -34.67050000     -68.75000000
C      -46.59080000     -32.72710000     -69.66450000
C      -47.52840000     -32.25110000     -68.84640000
S      -47.54370000     -36.30840000     -68.53980000
S      -48.59100000     -33.41870000     -68.11630000
H      -47.77850000     -31.18290000     -68.84830000
