40
Properties=species:S:1:pos:R:3 #=T CELL(abcABC):=T 1.889726e+02=T 90.00000=T Traj:=T positionsangstrom=T Step:=T 0=T Bead:=T pbc="F F F"
C      -48.25420000     -32.28110000     -71.97770000
C      -48.15570000     -31.80160000     -70.65080000
C      -47.19320000     -30.81410000     -70.33110000
C      -46.30970000     -30.32880000     -71.34020000
C      -46.51470000     -30.80570000     -72.65780000
C      -47.47250000     -31.76930000     -72.98980000
H      -49.08640000     -33.01750000     -72.14530000
H      -47.22780000     -30.44110000     -69.28430000
H      -45.93550000     -30.30800000     -73.41510000
H      -47.49230000     -32.05660000     -74.04920000
C      -45.06220000     -29.51270000     -70.94330000
H      -45.38260000     -28.52160000     -70.50910000
H      -44.46300000     -29.32570000     -71.84520000
C      -48.95450000     -32.54170000     -69.63380000
H      -49.54050000     -31.87730000     -68.94790000
H      -49.65300000     -33.27640000     -70.11160000
S      -43.91360000     -30.34270000     -69.77960000
S      -47.92570000     -33.58860000     -68.51760000
C      -43.63080000     -31.83550000     -70.91220000
H      -44.67420000     -32.14260000     -71.28380000
H      -43.06910000     -31.51150000     -71.82190000
C      -47.29120000     -34.85700000     -69.70930000
H      -48.06220000     -34.80750000     -70.46150000
H      -47.24400000     -35.91140000     -69.25290000
C      -45.94000000     -34.39450000     -70.24490000
H      -46.12150000     -33.34730000     -70.49690000
H      -45.33160000     -34.54980000     -69.37720000
C      -42.87940000     -33.07970000     -70.34220000
H      -43.26730000     -33.31470000     -69.36260000
H      -41.84760000     -32.86810000     -70.08260000
C      -42.86020000     -34.18850000     -71.39220000
C      -41.72730000     -34.37130000     -72.14880000
C      -44.00900000     -34.97660000     -71.87120000
H      -40.73120000     -33.78010000     -72.07400000
C      -43.62920000     -35.77310000     -72.96250000
C      -45.34280000     -35.11460000     -71.42240000
C      -45.97650000     -36.09080000     -72.16020000
S      -41.92050000     -35.63620000     -73.42970000
S      -45.00850000     -36.75500000     -73.56410000
H      -47.05110000     -36.34250000     -72.14960000
