40
Properties=species:S:1:pos:R:3 #=T CELL(abcABC):=T 1.889726e+02=T 90.00000=T Traj:=T positionsangstrom=T Step:=T 0=T Bead:=T pbc="F F F"
C      -48.53260000     -31.81770000     -71.95930000
C      -48.33410000     -31.66290000     -70.57810000
C      -47.29360000     -30.82410000     -70.21620000
C      -46.52210000     -30.15100000     -71.13540000
C      -46.81770000     -30.31690000     -72.50740000
C      -47.77010000     -31.21850000     -72.93660000
H      -49.24910000     -32.57140000     -72.27800000
H      -46.89800000     -30.91030000     -69.16210000
H      -46.29930000     -29.79190000     -73.27970000
H      -48.00550000     -31.44510000     -73.93250000
C      -45.30850000     -29.32640000     -70.76210000
H      -45.44100000     -28.79660000     -69.78540000
H      -45.21070000     -28.66910000     -71.64900000
C      -49.17080000     -32.45700000     -69.62260000
H      -49.60660000     -31.85400000     -68.93370000
H      -49.92470000     -32.95330000     -70.18810000
S      -43.69340000     -30.22600000     -70.49200000
S      -48.16890000     -33.60220000     -68.64760000
C      -43.65340000     -31.66280000     -71.59630000
H      -44.66210000     -32.04920000     -71.67130000
H      -43.30110000     -31.43360000     -72.54770000
C      -47.34390000     -34.65690000     -69.99440000
H      -47.99040000     -34.74790000     -70.80200000
H      -47.20460000     -35.68350000     -69.59190000
C      -45.89780000     -34.19330000     -70.44950000
H      -45.99750000     -33.19200000     -70.91320000
H      -45.33370000     -33.99290000     -69.54900000
C      -42.86990000     -32.74840000     -70.91790000
H      -43.37910000     -33.03970000     -70.00510000
H      -41.83920000     -32.49450000     -70.73270000
C      -42.85780000     -34.06180000     -71.75980000
C      -41.73930000     -34.35050000     -72.46070000
C      -43.79170000     -35.12750000     -71.73070000
H      -40.96150000     -33.72260000     -72.57420000
C      -43.36380000     -36.20020000     -72.53560000
C      -45.17820000     -35.26220000     -71.28100000
C      -45.76500000     -36.47200000     -71.69970000
S      -41.85040000     -35.97750000     -73.20350000
S      -44.61710000     -37.38140000     -72.69030000
H      -46.82910000     -36.68830000     -71.87890000
