40
Properties=species:S:1:pos:R:3 #=T CELL(abcABC):=T 1.889726e+02=T 90.00000=T Traj:=T positionsangstrom=T Step:=T 0=T Bead:=T pbc="F F F"
C      -45.87680000     -30.82130000     -70.19120000
C      -46.71900000     -31.79470000     -69.68570000
C      -47.59220000     -32.50620000     -70.54590000
C      -47.66470000     -32.25570000     -71.94300000
C      -46.77310000     -31.31580000     -72.44890000
C      -45.91610000     -30.58240000     -71.54330000
H      -45.19260000     -30.41480000     -69.47610000
H      -48.39190000     -33.06850000     -70.07570000
H      -46.65980000     -31.16330000     -73.51310000
H      -45.26000000     -29.89850000     -72.02120000
C      -48.69500000     -32.94430000     -72.77670000
H      -49.00930000     -32.28930000     -73.64850000
H      -49.48160000     -33.29370000     -72.12430000
C      -46.56240000     -32.02060000     -68.21470000
H      -46.65230000     -31.05550000     -67.68890000
H      -47.44350000     -32.52860000     -67.78950000
S      -48.00340000     -34.50870000     -73.54500000
S      -45.13150000     -32.93750000     -67.51460000
C      -47.19350000     -35.34980000     -72.08890000
H      -47.15980000     -34.70060000     -71.19700000
H      -47.96680000     -36.09490000     -71.93530000
C      -45.48570000     -34.56080000     -68.36810000
H      -46.37690000     -34.36640000     -68.91380000
H      -45.69980000     -35.29690000     -67.58650000
C      -44.37720000     -35.21280000     -69.35340000
H      -43.54370000     -35.56150000     -68.75920000
H      -44.85100000     -36.12710000     -69.68600000
C      -45.79380000     -36.03990000     -72.41060000
H      -45.83890000     -36.70300000     -73.26810000
H      -45.47670000     -36.63170000     -71.47170000
C      -44.77090000     -35.00120000     -72.80950000
C      -44.43710000     -34.67140000     -74.11070000
C      -44.00160000     -34.26310000     -71.76830000
H      -44.68750000     -35.04510000     -75.13770000
C      -43.19360000     -33.32480000     -72.38800000
C      -43.76990000     -34.32610000     -70.35830000
C      -42.81640000     -33.49530000     -69.95120000
S      -43.09120000     -33.55180000     -74.14050000
S      -42.19350000     -32.46140000     -71.22010000
H      -42.39600000     -33.33950000     -69.04020000
