40
Properties=species:S:1:pos:R:3 #=T CELL(abcABC):=T 1.889726e+02=T 90.00000=T Traj:=T positionsangstrom=T Step:=T 0=T Bead:=T pbc="F F F"
C      -48.43730000     -32.10600000     -71.72910000
C      -48.15250000     -31.97310000     -70.37090000
C      -47.00780000     -31.33850000     -69.91970000
C      -46.13880000     -30.77460000     -70.86830000
C      -46.32680000     -30.97750000     -72.22050000
C      -47.51770000     -31.57290000     -72.64700000
H      -49.45090000     -32.42300000     -72.03360000
H      -46.78390000     -31.24980000     -68.82780000
H      -45.69180000     -30.39250000     -72.90670000
H      -47.76430000     -31.64560000     -73.75520000
C      -45.10260000     -29.83130000     -70.47660000
H      -45.51830000     -28.98730000     -69.94210000
H      -44.51360000     -29.36720000     -71.31390000
C      -49.02970000     -32.69390000     -69.35940000
H      -49.40490000     -32.04040000     -68.55190000
H      -49.98730000     -32.97990000     -69.82570000
S      -43.81280000     -30.68690000     -69.41110000
S      -48.12970000     -34.06470000     -68.60770000
C      -43.08400000     -31.68830000     -70.94220000
H      -43.83070000     -31.71860000     -71.74670000
H      -42.19500000     -31.16390000     -71.30050000
C      -47.36460000     -34.75550000     -70.13110000
H      -48.08640000     -34.59930000     -70.97560000
H      -47.41410000     -35.83830000     -70.02190000
C      -45.93660000     -34.28160000     -70.36150000
H      -45.72500000     -33.23530000     -70.32150000
H      -45.27140000     -34.56600000     -69.54170000
C      -42.82450000     -33.11460000     -70.43760000
H      -43.58310000     -33.50890000     -69.78250000
H      -41.88580000     -33.02270000     -69.81720000
C      -42.73890000     -34.08950000     -71.57360000
C      -41.64510000     -34.36060000     -72.32150000
C      -44.00200000     -34.78540000     -72.05440000
H      -40.68450000     -33.96360000     -72.23090000
C      -43.71080000     -35.56420000     -73.14320000
C      -45.43860000     -34.87250000     -71.67650000
C      -46.12300000     -35.61190000     -72.65490000
S      -42.00010000     -35.49580000     -73.63230000
S      -45.09590000     -36.15480000     -73.97600000
H      -47.20860000     -35.88240000     -72.64820000
