40
Properties=species:S:1:pos:R:3 #=T CELL(abcABC):=T 1.889726e+02=T 90.00000=T Traj:=T positionsangstrom=T Step:=T 0=T Bead:=T pbc="F F F"
C      -48.64210000     -31.35540000     -71.33150000
C      -48.26240000     -31.88270000     -70.10990000
C      -47.10260000     -31.36110000     -69.54300000
C      -46.31540000     -30.39580000     -70.17270000
C      -46.72930000     -29.87440000     -71.37890000
C      -47.87780000     -30.38470000     -71.99510000
H      -49.58380000     -31.72920000     -71.80400000
H      -46.78990000     -31.85210000     -68.58060000
H      -46.14150000     -28.99600000     -71.77560000
H      -48.24050000     -30.05620000     -72.92880000
C      -44.96470000     -29.85340000     -69.48920000
H      -45.33520000     -29.20250000     -68.67030000
H      -44.52400000     -29.14890000     -70.19360000
C      -49.07880000     -33.07400000     -69.57600000
H      -49.69480000     -32.77640000     -68.75370000
H      -49.71690000     -33.23260000     -70.38240000
S      -43.77130000     -31.06110000     -68.86490000
S      -48.15210000     -34.53810000     -68.96700000
C      -43.25370000     -31.78000000     -70.53500000
H      -44.13260000     -31.59490000     -71.16690000
H      -42.51710000     -31.17780000     -71.04920000
C      -47.33780000     -35.15220000     -70.55830000
H      -47.92110000     -34.67280000     -71.36570000
H      -47.43440000     -36.26710000     -70.52250000
C      -45.81530000     -34.76730000     -70.73020000
H      -45.74180000     -33.69410000     -70.58640000
H      -45.24080000     -35.41900000     -70.01420000
C      -42.97320000     -33.33860000     -70.41720000
H      -43.71300000     -33.81000000     -69.83240000
H      -42.11570000     -33.26450000     -69.79080000
C      -42.80370000     -34.05500000     -71.75700000
C      -41.73510000     -34.02270000     -72.65530000
C      -43.94850000     -34.84520000     -72.37070000
H      -40.71060000     -33.71540000     -72.56090000
C      -43.53840000     -35.43780000     -73.58640000
C      -45.32900000     -35.18290000     -72.12300000
C      -45.90770000     -36.03350000     -72.99730000
S      -41.94830000     -35.03400000     -74.10950000
S      -44.73220000     -36.35410000     -74.34950000
H      -46.95120000     -36.36400000     -73.05080000
