40
Properties=species:S:1:pos:R:3 #=T CELL(abcABC):=T 1.889726e+02=T 90.00000=T Traj:=T positionsangstrom=T Step:=T 0=T Bead:=T pbc="F F F"
C      -48.48160000     -32.17110000     -71.81600000
C      -48.18430000     -31.89470000     -70.46020000
C      -47.26200000     -30.88150000     -70.11970000
C      -46.25080000     -30.55560000     -71.07570000
C      -46.52290000     -30.81790000     -72.45100000
C      -47.62470000     -31.66710000     -72.83450000
H      -49.16990000     -32.95350000     -72.19830000
H      -47.04420000     -30.61430000     -69.07970000
H      -45.83710000     -30.46420000     -73.22940000
H      -47.89860000     -31.89110000     -73.88300000
C      -45.06030000     -29.73100000     -70.58430000
H      -45.47850000     -28.94140000     -69.88970000
H      -44.58100000     -29.21070000     -71.38280000
C      -49.13700000     -32.51030000     -69.41390000
H      -49.28780000     -31.89130000     -68.58780000
H      -50.05290000     -32.88580000     -69.92410000
S      -43.80640000     -30.67650000     -69.56310000
S      -48.20730000     -33.95850000     -68.59400000
C      -43.10920000     -31.85300000     -70.81270000
H      -43.92700000     -31.96890000     -71.56740000
H      -42.31110000     -31.40090000     -71.40990000
C      -47.42600000     -34.81990000     -70.02990000
H      -48.06120000     -34.66290000     -70.84790000
H      -47.43120000     -35.90980000     -69.74250000
C      -45.90630000     -34.39480000     -70.25620000
H      -45.99130000     -33.26010000     -70.17350000
H      -45.36670000     -34.86590000     -69.47860000
C      -42.56890000     -33.23760000     -70.34980000
H      -43.14400000     -33.55020000     -69.48310000
H      -41.56220000     -33.09890000     -69.95650000
C      -42.63850000     -34.28110000     -71.47500000
C      -41.50980000     -34.53270000     -72.18650000
C      -43.90490000     -34.84440000     -71.93890000
H      -40.54990000     -34.29430000     -71.95700000
C      -43.65760000     -35.48160000     -73.13870000
C      -45.34370000     -34.88300000     -71.55200000
C      -46.02320000     -35.66220000     -72.48040000
S      -41.93930000     -35.48130000     -73.65510000
S      -45.08140000     -36.31540000     -73.79240000
H      -47.06940000     -35.83990000     -72.42500000
