40
Properties=species:S:1:pos:R:3 #=T CELL(abcABC):=T 1.889726e+02=T 90.00000=T Traj:=T positionsangstrom=T Step:=T 0=T Bead:=T pbc="F F F"
C      -48.30600000     -32.19720000     -71.67820000
C      -48.17980000     -31.99170000     -70.26370000
C      -47.16050000     -31.12920000     -69.78150000
C      -46.29740000     -30.52280000     -70.69260000
C      -46.46950000     -30.68900000     -72.12950000
C      -47.51790000     -31.50890000     -72.56190000
H      -49.00010000     -33.00170000     -71.91520000
H      -47.07730000     -30.96420000     -68.68110000
H      -45.69650000     -30.26380000     -72.74510000
H      -47.56800000     -31.71820000     -73.64980000
C      -45.08290000     -29.66170000     -70.21290000
H      -45.43400000     -29.09010000     -69.42690000
H      -44.70240000     -29.08440000     -71.07240000
C      -48.95430000     -32.74430000     -69.22260000
H      -48.97710000     -32.12350000     -68.30770000
H      -49.96110000     -33.04230000     -69.46790000
S      -43.68480000     -30.61940000     -69.47970000
S      -48.10640000     -34.31410000     -68.64430000
C      -43.12720000     -31.82400000     -70.75180000
H      -43.93340000     -31.79830000     -71.49080000
H      -42.17390000     -31.58510000     -71.23370000
C      -47.39050000     -35.04450000     -70.13690000
H      -47.95360000     -34.71840000     -71.01250000
H      -47.32010000     -36.09030000     -70.03610000
C      -45.98320000     -34.47380000     -70.50630000
H      -45.98620000     -33.39280000     -70.44770000
H      -45.25750000     -34.86570000     -69.68620000
C      -42.78330000     -33.33750000     -70.32240000
H      -43.60810000     -33.61410000     -69.59500000
H      -41.77640000     -33.48560000     -69.90620000
C      -42.79870000     -34.21050000     -71.53890000
C      -41.69570000     -34.45080000     -72.28750000
C      -44.04560000     -34.68450000     -72.16800000
H      -40.68950000     -34.00190000     -72.12690000
C      -43.75640000     -35.36150000     -73.34680000
C      -45.42040000     -34.85270000     -71.83510000
C      -46.13130000     -35.62000000     -72.72840000
S      -41.97210000     -35.28950000     -73.75140000
S      -45.10270000     -36.14180000     -74.09040000
H      -47.18010000     -35.97420000     -72.57850000
