40
Properties=species:S:1:pos:R:3 #=T CELL(abcABC):=T 1.889726e+02=T 90.00000=T Traj:=T positionsangstrom=T Step:=T 0=T Bead:=T pbc="F F F"
C      -45.63710000     -32.27880000     -68.60790000
C      -46.97150000     -32.18300000     -69.10320000
C      -47.62920000     -33.39440000     -69.42240000
C      -46.92590000     -34.60730000     -69.33800000
C      -45.57210000     -34.69480000     -68.86140000
C      -44.93250000     -33.50610000     -68.48700000
H      -45.11500000     -31.40390000     -68.41440000
H      -48.56740000     -33.31560000     -69.97350000
H      -45.08130000     -35.65970000     -68.89250000
H      -43.91320000     -33.65640000     -68.13670000
C      -47.62700000     -35.87770000     -69.73720000
H      -48.72600000     -35.77230000     -69.95490000
H      -47.46860000     -36.61000000     -68.94230000
C      -47.58520000     -30.82640000     -69.33420000
H      -48.62070000     -30.76800000     -69.30940000
H      -47.07940000     -30.16630000     -68.68140000
S      -46.89170000     -36.63400000     -71.33470000
S      -47.04390000     -30.12160000     -70.99810000
C      -47.25490000     -35.22950000     -72.46460000
H      -48.11660000     -35.49300000     -73.15210000
H      -47.61270000     -34.48200000     -71.77180000
C      -47.07220000     -31.50600000     -72.35510000
H      -48.07190000     -31.42690000     -72.93830000
H      -47.28390000     -32.36530000     -71.67280000
C      -45.89950000     -31.32290000     -73.28760000
H      -46.18460000     -31.67930000     -74.27470000
H      -45.72250000     -30.25920000     -73.28290000
C      -46.01060000     -34.85740000     -73.44920000
H      -46.35270000     -33.99380000     -73.99910000
H      -45.98630000     -35.64300000     -74.11620000
C      -44.61800000     -34.60730000     -72.90930000
C      -43.67360000     -35.67310000     -72.85740000
C      -44.09990000     -33.30170000     -72.48950000
H      -43.77220000     -36.63130000     -73.33980000
C      -42.77210000     -33.46930000     -72.13820000
C      -44.55040000     -31.89130000     -72.71740000
C      -43.53240000     -31.04530000     -72.24490000
S      -42.06500000     -35.09430000     -72.30620000
S      -41.98680000     -31.95130000     -71.90280000
H      -43.51830000     -29.93350000     -72.33280000
