40
Properties=species:S:1:pos:R:3 #=T CELL(abcABC):=T 1.889726e+02=T 90.00000=T Traj:=T positionsangstrom=T Step:=T 0=T Bead:=T pbc="F F F"
C      -48.62960000     -31.11050000     -71.05980000
C      -48.10970000     -31.87830000     -69.99690000
C      -46.99910000     -31.44950000     -69.30780000
C      -46.31220000     -30.32540000     -69.75490000
C      -46.76370000     -29.57600000     -70.82210000
C      -48.01880000     -29.94100000     -71.38460000
H      -49.58480000     -31.35890000     -71.50240000
H      -46.59790000     -32.10360000     -68.51050000
H      -46.34500000     -28.57680000     -70.99850000
H      -48.48630000     -29.38110000     -72.15820000
C      -45.02520000     -29.95230000     -69.06720000
H      -45.03990000     -29.70040000     -67.93480000
H      -44.55370000     -29.07860000     -69.49180000
C      -48.97750000     -33.06960000     -69.65000000
H      -49.80250000     -32.87890000     -68.96190000
H      -49.42150000     -33.39660000     -70.64110000
S      -43.85680000     -31.40770000     -69.14350000
S      -48.03410000     -34.51250000     -69.03020000
C      -43.83210000     -31.99360000     -70.85400000
H      -44.86230000     -32.16990000     -71.30080000
H      -43.45700000     -31.31050000     -71.64600000
C      -47.37150000     -34.99250000     -70.70490000
H      -47.92300000     -34.44960000     -71.53610000
H      -47.58610000     -36.06480000     -70.88160000
C      -45.86890000     -34.73170000     -70.88310000
H      -45.91270000     -33.65590000     -70.79590000
H      -45.37540000     -35.18760000     -69.98180000
C      -42.83630000     -33.10860000     -70.73240000
H      -43.19240000     -33.89060000     -69.97060000
H      -41.81890000     -32.87730000     -70.39810000
C      -42.84960000     -33.92890000     -72.02880000
C      -41.75600000     -33.91690000     -72.80820000
C      -43.84490000     -34.84840000     -72.51640000
H      -40.75870000     -33.48000000     -72.58280000
C      -43.50130000     -35.51680000     -73.71960000
C      -45.17540000     -35.20690000     -72.10760000
C      -45.79390000     -36.03610000     -72.91850000
S      -41.88060000     -35.03110000     -74.23350000
S      -44.77900000     -36.52570000     -74.28780000
H      -46.88230000     -36.30020000     -72.91570000
