40
Properties=species:S:1:pos:R:3 #=T CELL(abcABC):=T 1.889726e+02=T 90.00000=T Traj:=T positionsangstrom=T Step:=T 0=T Bead:=T pbc="F F F"
C      -48.63430000     -30.85690000     -70.62800000
C      -48.07790000     -31.77200000     -69.70310000
C      -46.80780000     -31.49760000     -69.05610000
C      -46.01540000     -30.37490000     -69.52390000
C      -46.61000000     -29.54660000     -70.49310000
C      -47.89990000     -29.74640000     -71.03850000
H      -49.58040000     -31.03100000     -71.13320000
H      -46.33650000     -32.15730000     -68.32760000
H      -46.05000000     -28.75760000     -70.97220000
H      -48.36750000     -29.16040000     -71.76460000
C      -44.70970000     -29.94580000     -68.93610000
H      -44.84370000     -29.71500000     -67.85910000
H      -44.20760000     -29.07340000     -69.44070000
C      -48.96900000     -32.90060000     -69.32410000
H      -49.35930000     -32.80500000     -68.28390000
H      -49.82140000     -32.93170000     -70.03420000
S      -43.55210000     -31.44140000     -68.92320000
S      -48.05820000     -34.58730000     -69.03600000
C      -43.56960000     -32.05790000     -70.74820000
H      -44.65200000     -32.14530000     -71.07200000
H      -42.99620000     -31.41620000     -71.34790000
C      -47.49640000     -35.20510000     -70.69830000
H      -48.26300000     -35.13840000     -71.47690000
H      -47.39280000     -36.28950000     -70.59390000
C      -46.11300000     -34.63940000     -71.06840000
H      -46.18720000     -33.55260000     -71.17760000
H      -45.42010000     -34.79040000     -70.23390000
C      -42.91590000     -33.46200000     -70.77750000
H      -43.34050000     -34.16120000     -70.09850000
H      -41.85460000     -33.30240000     -70.62220000
C      -42.92060000     -34.08080000     -72.14880000
C      -41.68450000     -34.27910000     -72.89240000
C      -44.01530000     -34.88000000     -72.71420000
H      -40.73980000     -33.85240000     -72.68480000
C      -43.64110000     -35.35570000     -73.94290000
C      -45.41750000     -35.22100000     -72.30740000
C      -45.99690000     -36.03360000     -73.24700000
S      -42.05540000     -35.09460000     -74.46400000
S      -44.98500000     -36.22800000     -74.72960000
H      -47.03320000     -36.33510000     -73.25670000
