40
Properties=species:S:1:pos:R:3 #=T CELL(abcABC):=T 1.889726e+02=T 90.00000=T Traj:=T positionsangstrom=T Step:=T 0=T Bead:=T pbc="F F F"
C      -48.52100000     -30.91740000     -70.68760000
C      -48.04350000     -31.77730000     -69.67020000
C      -46.82670000     -31.53510000     -69.10430000
C      -46.06610000     -30.39240000     -69.43530000
C      -46.54010000     -29.53760000     -70.42360000
C      -47.77100000     -29.79300000     -70.96990000
H      -49.50300000     -30.94970000     -71.14270000
H      -46.48220000     -32.29630000     -68.36970000
H      -46.02270000     -28.62030000     -70.60440000
H      -48.26110000     -29.07960000     -71.59530000
C      -44.66220000     -30.13450000     -68.82860000
H      -44.71750000     -30.00210000     -67.77490000
H      -44.33990000     -29.25300000     -69.32490000
C      -48.85260000     -33.00900000     -69.22380000
H      -49.32810000     -32.77980000     -68.29290000
H      -49.65430000     -33.24890000     -69.92840000
S      -43.52450000     -31.48370000     -69.07360000
S      -47.87930000     -34.59000000     -68.96640000
C      -43.54330000     -32.15840000     -70.73900000
H      -44.57790000     -32.26150000     -71.03370000
H      -42.86810000     -31.56840000     -71.40910000
C      -47.44430000     -35.12000000     -70.71390000
H      -48.15910000     -34.53610000     -71.30880000
H      -47.49330000     -36.18480000     -70.70380000
C      -46.03140000     -34.69010000     -71.05480000
H      -45.99090000     -33.60770000     -70.93410000
H      -45.36090000     -35.00360000     -70.27740000
C      -42.92200000     -33.59090000     -70.76950000
H      -43.52710000     -34.17210000     -70.03160000
H      -41.85420000     -33.55110000     -70.43780000
C      -43.00680000     -34.17470000     -72.10970000
C      -41.84370000     -34.23700000     -72.90350000
C      -44.11960000     -34.79530000     -72.76610000
H      -40.89190000     -33.69090000     -72.92490000
C      -43.74740000     -35.34340000     -73.98100000
C      -45.51380000     -35.00630000     -72.43050000
C      -46.14880000     -35.74980000     -73.40320000
S      -42.08830000     -35.03970000     -74.39950000
S      -45.12410000     -36.19260000     -74.75260000
H      -47.21040000     -35.97700000     -73.43050000
