40
Properties=species:S:1:pos:R:3 #=T CELL(abcABC):=T 1.889726e+02=T 90.00000=T Traj:=T positionsangstrom=T Step:=T 0=T Bead:=T pbc="F F F"
C      -48.36960000     -31.17060000     -70.85020000
C      -47.90170000     -31.82120000     -69.64210000
C      -46.67260000     -31.47110000     -69.12260000
C      -45.84790000     -30.51050000     -69.69030000
C      -46.24130000     -29.87770000     -70.84050000
C      -47.47270000     -30.22720000     -71.44680000
H      -49.34850000     -31.41120000     -71.25940000
H      -46.34320000     -31.96820000     -68.22220000
H      -45.59600000     -29.12810000     -71.34460000
H      -47.81260000     -29.60260000     -72.31200000
C      -44.46880000     -30.29090000     -69.14320000
H      -44.57630000     -29.84690000     -68.17180000
H      -43.91740000     -29.69170000     -69.86370000
C      -48.71880000     -32.73850000     -68.80280000
H      -48.55600000     -32.51660000     -67.75320000
H      -49.74620000     -32.63190000     -69.13450000
S      -43.34610000     -31.83060000     -68.84860000
S      -48.15120000     -34.50190000     -68.99710000
C      -43.05820000     -32.37050000     -70.64360000
H      -43.98340000     -32.33430000     -71.13240000
H      -42.44990000     -31.72980000     -71.14590000
C      -47.50240000     -34.67480000     -70.66440000
H      -47.98580000     -33.95440000     -71.33290000
H      -47.70550000     -35.69020000     -70.84370000
C      -46.07350000     -34.29320000     -70.88070000
H      -45.99120000     -33.16770000     -70.88420000
H      -45.48870000     -34.51860000     -70.00260000
C      -42.56420000     -33.84630000     -70.64100000
H      -43.13860000     -34.42100000     -69.87590000
H      -41.51920000     -33.93820000     -70.38310000
C      -42.92670000     -34.38280000     -72.07700000
C      -41.87630000     -34.42190000     -73.00060000
C      -44.16820000     -34.75990000     -72.69480000
H      -40.89300000     -34.01920000     -72.77590000
C      -44.05120000     -35.15600000     -74.01390000
C      -45.50630000     -34.91300000     -72.17740000
C      -46.35850000     -35.55240000     -73.08260000
S      -42.38290000     -34.95860000     -74.59330000
S      -45.53740000     -35.83890000     -74.67940000
H      -47.44590000     -35.65730000     -73.05170000
