40
Properties=species:S:1:pos:R:3 #=T CELL(abcABC):=T 1.889726e+02=T 90.00000=T Traj:=T positionsangstrom=T Step:=T 0=T Bead:=T pbc="F F F"
C      -48.45820000     -31.00830000     -70.67540000
C      -47.97370000     -31.84940000     -69.65610000
C      -46.71690000     -31.53190000     -69.10170000
C      -45.94630000     -30.46380000     -69.53460000
C      -46.49110000     -29.57710000     -70.53500000
C      -47.73910000     -29.86240000     -71.05300000
H      -49.39060000     -31.21890000     -71.20980000
H      -46.38500000     -32.19310000     -68.27120000
H      -46.04180000     -28.69200000     -70.92170000
H      -48.14890000     -29.37550000     -71.94720000
C      -44.62460000     -30.09150000     -68.87210000
H      -44.71620000     -29.81030000     -67.77660000
H      -44.10340000     -29.26500000     -69.32350000
C      -48.75940000     -32.97940000     -69.09330000
H      -49.16450000     -32.64960000     -68.11830000
H      -49.62760000     -33.29210000     -69.67150000
S      -43.36080000     -31.53720000     -68.83980000
S      -47.86810000     -34.55130000     -68.98200000
C      -43.50570000     -32.16490000     -70.63520000
H      -44.43780000     -31.99060000     -71.03170000
H      -43.01520000     -31.37660000     -71.20900000
C      -47.46750000     -34.91840000     -70.77690000
H      -48.20270000     -34.49320000     -71.39700000
H      -47.70910000     -35.97890000     -70.96780000
C      -46.01440000     -34.64970000     -71.05120000
H      -45.83370000     -33.59550000     -71.08070000
H      -45.41480000     -35.08380000     -70.22340000
C      -42.92950000     -33.58110000     -70.74560000
H      -43.34830000     -34.23020000     -70.02560000
H      -41.87690000     -33.61660000     -70.36330000
C      -43.01400000     -34.20670000     -72.10760000
C      -41.92800000     -34.28060000     -72.93920000
C      -44.09800000     -34.89850000     -72.78070000
H      -40.87590000     -33.85010000     -72.89930000
C      -43.88120000     -35.35820000     -74.08070000
C      -45.47700000     -35.11010000     -72.37550000
C      -46.23920000     -35.72560000     -73.29350000
S      -42.22500000     -35.11450000     -74.52780000
S      -45.31080000     -35.99460000     -74.80230000
H      -47.28130000     -35.99740000     -73.26680000
