40
Properties=species:S:1:pos:R:3 #=T CELL(abcABC):=T 1.889726e+02=T 90.00000=T Traj:=T positionsangstrom=T Step:=T 0=T Bead:=T pbc="F F F"
C      -48.65960000     -30.91440000     -70.80870000
C      -48.13490000     -31.83600000     -69.85030000
C      -46.81370000     -31.60330000     -69.31970000
C      -46.11080000     -30.38140000     -69.60060000
C      -46.68200000     -29.52000000     -70.55940000
C      -47.89370000     -29.79200000     -71.13370000
H      -49.66460000     -31.16530000     -71.21910000
H      -46.25340000     -32.33380000     -68.78000000
H      -46.14380000     -28.71410000     -71.02350000
H      -48.24060000     -29.00490000     -71.87840000
C      -44.78870000     -29.90510000     -69.06240000
H      -44.91350000     -29.51500000     -68.04230000
H      -44.34950000     -29.11170000     -69.73360000
C      -49.03050000     -33.05970000     -69.49430000
H      -49.58280000     -32.62980000     -68.59800000
H      -49.79440000     -33.33540000     -70.25760000
S      -43.70580000     -31.41100000     -68.96090000
S      -48.09790000     -34.63560000     -69.07590000
C      -43.42060000     -31.87340000     -70.76620000
H      -44.38500000     -31.77900000     -71.29020000
H      -42.52100000     -31.23190000     -71.06040000
C      -47.39200000     -35.01900000     -70.75220000
H      -48.22420000     -34.72930000     -71.41180000
H      -47.20520000     -36.11380000     -70.72050000
C      -46.09530000     -34.37630000     -71.16040000
H      -46.35010000     -33.35030000     -71.40940000
H      -45.45300000     -34.29880000     -70.30310000
C      -42.93940000     -33.36140000     -70.70380000
H      -43.57350000     -33.95730000     -69.99310000
H      -41.90810000     -33.34100000     -70.31710000
C      -42.87230000     -34.03840000     -72.09510000
C      -41.77910000     -34.08810000     -72.92370000
C      -44.00350000     -34.76090000     -72.67690000
H      -40.88220000     -33.51060000     -72.68060000
C      -43.60550000     -35.44950000     -73.84120000
C      -45.34410000     -35.13710000     -72.25710000
C      -45.94390000     -36.01570000     -73.14250000
S      -42.02430000     -35.09270000     -74.34160000
S      -44.82130000     -36.54470000     -74.39180000
H      -46.87640000     -36.52930000     -73.10920000
