40
Properties=species:S:1:pos:R:3 #=T CELL(abcABC):=T 1.889726e+02=T 90.00000=T Traj:=T positionsangstrom=T Step:=T 0=T Bead:=T pbc="F F F"
C      -48.12900000     -32.28140000     -69.50260000
C      -47.26660000     -31.21880000     -69.75070000
C      -45.97490000     -31.32080000     -69.27580000
C      -45.53170000     -32.52150000     -68.69270000
C      -46.40750000     -33.64060000     -68.51700000
C      -47.75680000     -33.50710000     -68.94820000
H      -49.16780000     -32.04530000     -69.71220000
H      -45.35430000     -30.45400000     -69.46590000
H      -46.11320000     -34.51040000     -67.98030000
H      -48.44680000     -34.35170000     -68.79520000
C      -44.16320000     -32.41930000     -68.07340000
H      -44.24620000     -32.40350000     -67.04330000
H      -43.72630000     -31.50230000     -68.31570000
C      -47.74570000     -29.96740000     -70.41540000
H      -48.77100000     -29.78040000     -70.25180000
H      -47.37380000     -29.01920000     -69.95360000
S      -42.96760000     -33.85320000     -68.37320000
S      -47.22650000     -29.85780000     -72.20910000
C      -42.16890000     -33.28380000     -69.93070000
H      -41.56380000     -32.34840000     -69.87170000
H      -41.36050000     -34.04320000     -70.15340000
C      -47.03830000     -31.60690000     -72.82550000
H      -47.58790000     -31.58100000     -73.78940000
H      -47.51170000     -32.27010000     -72.15410000
C      -45.59130000     -32.05620000     -73.09070000
H      -45.05050000     -31.49680000     -73.91230000
H      -45.08000000     -32.00000000     -72.11370000
C      -43.12780000     -33.11820000     -71.09620000
H      -42.56800000     -32.37320000     -71.64260000
H      -44.01930000     -32.62720000     -70.70090000
C      -43.53210000     -34.35670000     -71.84720000
C      -42.96320000     -35.59770000     -71.77820000
C      -44.60150000     -34.41510000     -72.87690000
H      -42.13000000     -35.92680000     -71.11650000
C      -44.75950000     -35.69510000     -73.39560000
C      -45.58230000     -33.48960000     -73.37120000
C      -46.46790000     -34.11900000     -74.26370000
S      -43.58100000     -36.88480000     -72.80800000
S      -46.16680000     -35.85480000     -74.31910000
H      -47.31420000     -33.64830000     -74.72040000
