40
Properties=species:S:1:pos:R:3 #=T CELL(abcABC):=T 1.889726e+02=T 90.00000=T Traj:=T positionsangstrom=T Step:=T 0=T Bead:=T pbc="F F F"
C      -46.40130000     -32.04760000     -69.51350000
C      -46.70070000     -33.30860000     -69.02220000
C      -47.58840000     -34.14150000     -69.79850000
C      -47.94600000     -33.74570000     -71.05350000
C      -47.66370000     -32.46830000     -71.54340000
C      -46.85900000     -31.61950000     -70.78510000
H      -45.77610000     -31.29100000     -68.98190000
H      -47.85890000     -35.17880000     -69.55690000
H      -48.08600000     -32.17950000     -72.51590000
H      -46.67880000     -30.61200000     -71.26830000
C      -48.67040000     -34.60210000     -72.11380000
H      -49.36950000     -33.95970000     -72.69250000
H      -49.29490000     -35.32240000     -71.62090000
C      -46.09860000     -33.83560000     -67.74110000
H      -46.22520000     -33.23370000     -66.84900000
H      -46.44280000     -34.90970000     -67.68090000
S      -47.34490000     -35.49120000     -73.36450000
S      -44.12540000     -33.83790000     -67.94340000
C      -45.89490000     -35.96730000     -72.30470000
H      -45.83310000     -35.34320000     -71.39560000
H      -45.83590000     -37.05580000     -72.08840000
C      -44.01060000     -34.96450000     -69.36390000
H      -45.00420000     -34.74020000     -69.87760000
H      -44.10390000     -35.96900000     -68.99910000
C      -42.82320000     -34.60630000     -70.28450000
H      -41.88530000     -34.52350000     -69.74410000
H      -42.78130000     -35.28700000     -71.12070000
C      -44.67290000     -35.55000000     -73.10970000
H      -44.84080000     -35.88700000     -74.18090000
H      -43.70460000     -36.07310000     -72.65610000
C      -44.52280000     -33.99250000     -73.17290000
C      -45.05840000     -33.31440000     -74.24070000
C      -43.95600000     -33.19380000     -72.15760000
H      -45.50300000     -33.66170000     -75.09770000
C      -44.13340000     -31.80180000     -72.47550000
C      -43.19440000     -33.32840000     -70.94370000
C      -42.89470000     -32.08500000     -70.36130000
S      -44.91440000     -31.53660000     -74.00280000
S      -43.32570000     -30.76730000     -71.39350000
H      -42.17780000     -31.76380000     -69.53570000
