40
Properties=species:S:1:pos:R:3 #=T CELL(abcABC):=T 1.889726e+02=T 90.00000=T Traj:=T positionsangstrom=T Step:=T 0=T Bead:=T pbc="F F F"
C      -47.62170000     -30.78050000     -71.12640000
C      -47.40980000     -31.17870000     -69.76310000
C      -46.16500000     -31.03250000     -69.26980000
C      -45.06780000     -30.64210000     -70.06030000
C      -45.32460000     -30.17040000     -71.36110000
C      -46.62170000     -30.18550000     -71.81950000
H      -48.57620000     -30.80940000     -71.60380000
H      -46.04230000     -31.35980000     -68.22290000
H      -44.51460000     -29.70860000     -71.96120000
H      -46.73890000     -29.66670000     -72.80820000
C      -43.69760000     -30.52300000     -69.48460000
H      -43.61700000     -29.80610000     -68.63890000
H      -42.98390000     -30.05100000     -70.19810000
C      -48.61930000     -31.82250000     -69.08580000
H      -48.89840000     -31.37040000     -68.14380000
H      -49.57120000     -31.65880000     -69.67930000
S      -43.09230000     -32.13380000     -68.83360000
S      -48.27880000     -33.65900000     -68.95240000
C      -43.18650000     -33.05500000     -70.43420000
H      -44.11600000     -32.68860000     -70.95230000
H      -42.37370000     -32.59150000     -71.09830000
C      -47.94020000     -34.45950000     -70.61220000
H      -48.34430000     -33.77050000     -71.36440000
H      -48.48670000     -35.36520000     -70.57130000
C      -46.45930000     -34.55910000     -70.71350000
H      -45.91660000     -33.70520000     -70.29060000
H      -46.05440000     -35.35600000     -70.02790000
C      -43.10820000     -34.57120000     -70.40590000
H      -43.91160000     -35.08080000     -69.78550000
H      -42.15570000     -34.96160000     -70.02550000
C      -43.27000000     -34.97240000     -71.84060000
C      -42.19700000     -35.23460000     -72.66560000
C      -44.52680000     -34.99180000     -72.47730000
H      -41.14080000     -35.18120000     -72.47270000
C      -44.38060000     -35.29140000     -73.82810000
C      -45.90790000     -34.86650000     -72.07600000
C      -46.71290000     -35.00640000     -73.19100000
S      -42.73400000     -35.46590000     -74.33370000
S      -45.93700000     -35.49710000     -74.65020000
H      -47.80240000     -34.70200000     -73.19300000
