40
Properties=species:S:1:pos:R:3 #=T CELL(abcABC):=T 1.889726e+02=T 90.00000=T Traj:=T positionsangstrom=T Step:=T 0=T Bead:=T pbc="F F F"
C      -47.50830000     -30.73270000     -71.18140000
C      -47.39380000     -31.23620000     -69.86840000
C      -46.15090000     -31.03530000     -69.27280000
C      -45.03980000     -30.47590000     -69.91460000
C      -45.24770000     -29.98080000     -71.24140000
C      -46.46640000     -30.07810000     -71.85680000
H      -48.40040000     -30.82200000     -71.70090000
H      -45.83080000     -31.24170000     -68.26890000
H      -44.48830000     -29.50390000     -71.86930000
H      -46.55150000     -29.68600000     -72.90670000
C      -43.77260000     -30.37020000     -69.18520000
H      -43.89030000     -29.98750000     -68.16870000
H      -42.96160000     -29.88870000     -69.70750000
C      -48.55970000     -31.82870000     -69.01870000
H      -48.49330000     -31.51590000     -68.00250000
H      -49.52380000     -31.55160000     -69.49440000
S      -43.16340000     -32.12400000     -68.77440000
S      -48.44990000     -33.74560000     -68.92440000
C      -43.19440000     -32.79490000     -70.50670000
H      -44.13900000     -32.56480000     -70.90460000
H      -42.47150000     -32.39970000     -71.20030000
C      -47.92470000     -34.09550000     -70.65550000
H      -48.21660000     -33.23790000     -71.26440000
H      -48.39630000     -35.02000000     -71.01550000
C      -46.39260000     -34.31700000     -70.82090000
H      -45.94260000     -33.33180000     -70.67880000
H      -45.95570000     -35.03460000     -70.08430000
C      -43.00060000     -34.32000000     -70.50600000
H      -43.67170000     -34.73960000     -69.78100000
H      -42.00600000     -34.48240000     -70.18810000
C      -43.22280000     -34.93210000     -71.89710000
C      -42.18150000     -35.39160000     -72.63250000
C      -44.53460000     -35.00450000     -72.60610000
H      -41.12670000     -35.54120000     -72.31690000
C      -44.37650000     -35.40160000     -73.93300000
C      -45.97000000     -34.85990000     -72.16440000
C      -46.80820000     -35.22660000     -73.18310000
S      -42.70070000     -35.79210000     -74.25240000
S      -45.94470000     -35.62720000     -74.74470000
H      -47.91300000     -35.35080000     -73.10310000
