40
Properties=species:S:1:pos:R:3 #=T CELL(abcABC):=T 1.889726e+02=T 90.00000=T Traj:=T positionsangstrom=T Step:=T 0=T Bead:=T pbc="F F F"
C      -47.70670000     -31.33200000     -71.31110000
C      -47.54220000     -31.63640000     -69.95220000
C      -46.40630000     -31.28390000     -69.22160000
C      -45.33250000     -30.72640000     -69.87080000
C      -45.48080000     -30.41960000     -71.25400000
C      -46.70790000     -30.57290000     -71.89490000
H      -48.60870000     -31.63580000     -71.82000000
H      -46.52390000     -31.59290000     -68.12890000
H      -44.61910000     -29.93720000     -71.75380000
H      -46.66960000     -30.15640000     -72.94890000
C      -44.05610000     -30.39120000     -69.19120000
H      -44.17390000     -29.95610000     -68.19630000
H      -43.39310000     -29.74390000     -69.74670000
C      -48.62600000     -32.45080000     -69.18360000
H      -48.83100000     -31.88770000     -68.24790000
H      -49.62460000     -32.42420000     -69.64780000
S      -43.19910000     -32.03120000     -68.81400000
S      -48.23990000     -34.18670000     -68.69310000
C      -43.05780000     -32.60440000     -70.62450000
H      -43.99240000     -32.28690000     -71.26630000
H      -42.26970000     -32.09640000     -71.10590000
C      -47.58020000     -34.96850000     -70.20240000
H      -48.31090000     -34.82470000     -71.03200000
H      -47.53970000     -36.02360000     -69.95790000
C      -46.19640000     -34.43880000     -70.61450000
H      -46.22620000     -33.34230000     -70.49570000
H      -45.41340000     -34.79170000     -69.90730000
C      -43.02120000     -34.13140000     -70.60720000
H      -43.68250000     -34.38630000     -69.80890000
H      -42.05050000     -34.38590000     -70.25030000
C      -43.19600000     -34.70090000     -71.97300000
C      -42.12870000     -34.78500000     -72.81820000
C      -44.47880000     -34.84470000     -72.56490000
H      -41.05010000     -34.61390000     -72.62260000
C      -44.34050000     -35.12660000     -73.92870000
C      -45.79710000     -34.72350000     -72.08320000
C      -46.68120000     -34.84120000     -73.16710000
S      -42.66450000     -35.12790000     -74.44920000
S      -45.90880000     -35.13940000     -74.74850000
H      -47.78720000     -34.78790000     -73.21520000
