40
Properties=species:S:1:pos:R:3 #=T CELL(abcABC):=T 1.889726e+02=T 90.00000=T Traj:=T positionsangstrom=T Step:=T 0=T Bead:=T pbc="F F F"
C      -48.07000000     -31.23460000     -71.01650000
C      -47.80680000     -31.71430000     -69.72440000
C      -46.58180000     -31.33570000     -69.11480000
C      -45.61830000     -30.68390000     -69.91550000
C      -45.83340000     -30.31810000     -71.24790000
C      -47.09960000     -30.60050000     -71.79800000
H      -49.10130000     -31.47530000     -71.37200000
H      -46.31370000     -31.68190000     -68.14390000
H      -45.01530000     -29.79420000     -71.67260000
H      -47.40290000     -30.36750000     -72.76970000
C      -44.33440000     -30.46670000     -69.04090000
H      -44.56720000     -30.15460000     -68.03820000
H      -43.81760000     -29.62770000     -69.48580000
C      -48.76750000     -32.48480000     -68.98670000
H      -48.80480000     -32.21170000     -67.93980000
H      -49.73540000     -32.52960000     -69.49410000
S      -43.21640000     -31.94770000     -68.88180000
S      -48.10490000     -34.21620000     -68.74030000
C      -43.04770000     -32.43900000     -70.64980000
H      -43.92780000     -32.43130000     -71.16410000
H      -42.24310000     -31.90760000     -71.13870000
C      -47.48720000     -34.59810000     -70.36790000
H      -47.74980000     -33.75980000     -71.00520000
H      -47.94130000     -35.53170000     -70.81550000
C      -45.96690000     -34.75720000     -70.58790000
H      -45.36000000     -33.91670000     -70.25200000
H      -45.67540000     -35.72640000     -70.07890000
C      -42.66690000     -33.95160000     -70.68030000
H      -43.25500000     -34.50500000     -69.95830000
H      -41.60220000     -34.03900000     -70.45790000
C      -43.03410000     -34.42710000     -72.08990000
C      -42.06360000     -34.60100000     -73.01130000
C      -44.34250000     -34.82520000     -72.63220000
H      -41.00970000     -34.47800000     -72.74380000
C      -44.22250000     -35.01240000     -73.97530000
C      -45.66980000     -34.88920000     -72.07030000
C      -46.49900000     -35.31910000     -73.06240000
S      -42.63100000     -35.02050000     -74.58270000
S      -45.76130000     -35.39400000     -74.70710000
H      -47.50590000     -35.58040000     -72.88810000
