40
Properties=species:S:1:pos:R:3 #=T CELL(abcABC):=T 1.889726e+02=T 90.00000=T Traj:=T positionsangstrom=T Step:=T 0=T Bead:=T pbc="F F F"
C      -47.43630000     -30.14790000     -71.10910000
C      -47.50700000     -30.99120000     -69.94820000
C      -46.38740000     -31.07480000     -69.06420000
C      -45.21430000     -30.36650000     -69.28600000
C      -45.12550000     -29.68610000     -70.45910000
C      -46.26940000     -29.49040000     -71.28810000
H      -48.18250000     -29.95760000     -71.83580000
H      -46.59220000     -31.65720000     -68.20930000
H      -44.19850000     -29.14070000     -70.63810000
H      -46.12020000     -28.70220000     -72.05120000
C      -44.02390000     -30.68180000     -68.42690000
H      -44.25320000     -31.17670000     -67.50110000
H      -43.42010000     -29.84920000     -68.14410000
C      -48.77270000     -31.78990000     -69.73080000
H      -49.45110000     -31.27680000     -68.93590000
H      -49.42680000     -31.75180000     -70.68550000
S      -42.64820000     -31.71640000     -69.35200000
S      -48.53430000     -33.53160000     -69.18870000
C      -43.26680000     -32.70420000     -70.74380000
H      -44.32270000     -32.39450000     -70.97190000
H      -42.57640000     -32.36580000     -71.57780000
C      -47.86790000     -34.44190000     -70.66440000
H      -48.62330000     -34.20210000     -71.43330000
H      -47.96140000     -35.48800000     -70.48550000
C      -46.47330000     -34.20170000     -71.07060000
H      -46.31630000     -33.10340000     -71.16380000
H      -45.88800000     -34.39690000     -70.15260000
C      -43.05220000     -34.22040000     -70.61130000
H      -43.75240000     -34.57800000     -69.80740000
H      -42.10760000     -34.50050000     -70.18520000
C      -43.26210000     -34.86050000     -71.97040000
C      -42.22360000     -35.12130000     -72.78710000
C      -44.58420000     -35.23680000     -72.54420000
H      -41.26040000     -34.90170000     -72.33860000
C      -44.41460000     -35.98830000     -73.70180000
C      -45.98580000     -34.92980000     -72.27450000
C      -46.77630000     -35.33510000     -73.31020000
S      -42.74970000     -36.10030000     -74.22340000
S      -45.91690000     -36.28110000     -74.51450000
H      -47.85040000     -35.31220000     -73.32950000
