40
Properties=species:S:1:pos:R:3 #=T CELL(abcABC):=T 1.889726e+02=T 90.00000=T Traj:=T positionsangstrom=T Step:=T 0=T Bead:=T pbc="F F F"
C      -47.49820000     -29.58300000     -70.43870000
C      -47.52690000     -30.81750000     -69.78560000
C      -46.36690000     -31.40120000     -69.33390000
C      -45.11040000     -30.73760000     -69.49340000
C      -45.08000000     -29.51180000     -70.11930000
C      -46.26850000     -28.84910000     -70.53590000
H      -48.49420000     -29.14180000     -70.70050000
H      -46.37730000     -32.27260000     -68.63360000
H      -44.19440000     -28.84450000     -70.25850000
H      -46.19440000     -27.86750000     -70.99380000
C      -43.92780000     -31.29580000     -68.80730000
H      -44.12900000     -32.28540000     -68.34700000
H      -43.87430000     -30.61310000     -67.95530000
C      -48.88410000     -31.52930000     -69.77210000
H      -49.45490000     -31.23460000     -68.88670000
H      -49.61320000     -31.33230000     -70.61250000
S      -42.39790000     -31.32570000     -69.74960000
S      -48.74230000     -33.37100000     -69.48790000
C      -42.67720000     -32.53980000     -71.11770000
H      -43.37990000     -32.17960000     -71.86520000
H      -41.78440000     -32.69740000     -71.64300000
C      -48.18230000     -34.10310000     -71.15470000
H      -48.79880000     -33.76710000     -71.96610000
H      -48.46670000     -35.18150000     -71.07190000
C      -46.65280000     -34.07250000     -71.37190000
H      -46.39730000     -33.02520000     -71.62910000
H      -46.23170000     -34.22070000     -70.40230000
C      -43.27810000     -33.90320000     -70.65080000
H      -44.21600000     -33.75240000     -70.17670000
H      -42.56610000     -34.44680000     -70.06470000
C      -43.43880000     -34.76730000     -71.85810000
C      -42.34510000     -35.50670000     -72.28390000
C      -44.62730000     -35.11650000     -72.60940000
H      -41.37250000     -35.42520000     -71.89770000
C      -44.33650000     -36.04390000     -73.66150000
C      -46.06970000     -35.01740000     -72.40690000
C      -46.78740000     -35.76100000     -73.31340000
S      -42.65820000     -36.45300000     -73.73800000
S      -45.86120000     -36.76500000     -74.37880000
H      -47.84360000     -35.87810000     -73.22540000
