40
Properties=species:S:1:pos:R:3 #=T CELL(abcABC):=T 1.889726e+02=T 90.00000=T Traj:=T positionsangstrom=T Step:=T 0=T Bead:=T pbc="F F F"
C      -47.48690000     -29.62260000     -70.46940000
C      -47.53540000     -30.85440000     -69.91060000
C      -46.37070000     -31.35300000     -69.25480000
C      -45.15420000     -30.63730000     -69.29510000
C      -45.14040000     -29.33700000     -69.79200000
C      -46.27840000     -28.88770000     -70.50510000
H      -48.37250000     -29.26160000     -71.03860000
H      -46.35620000     -32.40730000     -68.95500000
H      -44.27810000     -28.64490000     -69.66510000
H      -46.24850000     -27.86470000     -70.82000000
C      -43.94230000     -31.28700000     -68.69440000
H      -44.05680000     -32.32060000     -68.38390000
H      -43.53740000     -30.75250000     -67.77500000
C      -48.86220000     -31.60730000     -69.89150000
H      -49.53190000     -31.33040000     -69.07400000
H      -49.43380000     -31.36510000     -70.81050000
S      -42.35300000     -31.30530000     -69.73660000
S      -48.76930000     -33.43450000     -69.78650000
C      -42.65150000     -32.36880000     -71.18580000
H      -43.24230000     -31.83600000     -71.96790000
H      -41.59810000     -32.45880000     -71.54450000
C      -48.06470000     -33.93370000     -71.35900000
H      -48.47190000     -33.21320000     -72.09930000
H      -48.45270000     -34.92470000     -71.48170000
C      -46.55630000     -33.89150000     -71.39400000
H      -46.19850000     -32.90040000     -71.78630000
H      -46.16560000     -33.93880000     -70.35540000
C      -43.25720000     -33.77090000     -70.86650000
H      -44.17430000     -33.71740000     -70.25730000
H      -42.59620000     -34.15950000     -70.05930000
C      -43.34450000     -34.71310000     -72.03110000
C      -42.25540000     -35.36730000     -72.59540000
C      -44.57610000     -35.30110000     -72.51660000
H      -41.17840000     -35.16480000     -72.45550000
C      -44.41030000     -36.38280000     -73.36880000
C      -45.95690000     -34.91830000     -72.32070000
C      -46.79570000     -35.54880000     -73.19890000
S      -42.77680000     -36.69070000     -73.66860000
S      -45.96960000     -36.85310000     -74.13730000
H      -47.83700000     -35.39250000     -73.37240000
