40
Properties=species:S:1:pos:R:3 #=T CELL(abcABC):=T 1.889726e+02=T 90.00000=T Traj:=T positionsangstrom=T Step:=T 0=T Bead:=T pbc="F F F"
C      -43.76900000     -31.33810000     -68.61450000
C      -45.16690000     -31.59650000     -68.40780000
C      -46.12870000     -30.91380000     -69.23510000
C      -45.78180000     -30.03750000     -70.25540000
C      -44.41420000     -29.75540000     -70.41910000
C      -43.45170000     -30.37800000     -69.58520000
H      -43.04370000     -31.85580000     -67.97410000
H      -47.17190000     -31.17110000     -69.07780000
H      -44.12530000     -28.87480000     -70.94480000
H      -42.34410000     -30.09740000     -69.64380000
C      -46.74430000     -29.39230000     -71.17800000
H      -46.26180000     -28.56650000     -71.77080000
H      -47.56650000     -28.97900000     -70.63640000
C      -45.44290000     -32.65480000     -67.38970000
H      -44.55510000     -33.11780000     -67.03000000
H      -46.08350000     -32.36030000     -66.51220000
S      -47.60770000     -30.48970000     -72.43740000
S      -46.42310000     -34.15510000     -68.00070000
C      -46.19160000     -31.52210000     -72.91560000
H      -46.27600000     -31.59340000     -73.99750000
H      -45.34650000     -30.92400000     -72.71290000
C      -45.49830000     -34.88360000     -69.34030000
H      -44.70790000     -35.55180000     -68.92020000
H      -45.06240000     -34.01090000     -69.74120000
C      -46.29580000     -35.66100000     -70.31570000
H      -46.65960000     -36.62180000     -69.89720000
H      -47.21800000     -35.12620000     -70.53140000
C      -46.07690000     -32.91770000     -72.23770000
H      -47.02720000     -33.44470000     -72.33140000
H      -45.87110000     -32.74960000     -71.17350000
C      -45.03890000     -33.83190000     -72.80460000
C      -44.33860000     -33.44040000     -73.95510000
C      -44.92450000     -35.21500000     -72.55800000
H      -44.12350000     -32.47900000     -74.31140000
C      -44.09820000     -35.87450000     -73.48070000
C      -45.46780000     -36.04720000     -71.53460000
C      -45.12280000     -37.33740000     -71.76450000
S      -43.60740000     -34.85780000     -74.75640000
S      -44.07740000     -37.52250000     -73.24000000
H      -45.37320000     -38.24250000     -71.20410000
