40
Properties=species:S:1:pos:R:3 #=T CELL(abcABC):=T 1.889726e+02=T 90.00000=T Traj:=T positionsangstrom=T Step:=T 0=T Bead:=T pbc="F F F"
C      -45.47200000     -31.45630000     -69.45400000
C      -45.64040000     -32.70830000     -68.73730000
C      -46.74650000     -33.46290000     -69.14570000
C      -47.60810000     -33.13150000     -70.29870000
C      -47.32830000     -31.97320000     -70.99630000
C      -46.23890000     -31.16600000     -70.53680000
H      -44.73700000     -30.68210000     -69.17980000
H      -46.89740000     -34.38820000     -68.65500000
H      -47.99090000     -31.59680000     -71.71550000
H      -46.16650000     -30.14050000     -70.99500000
C      -48.81540000     -34.02280000     -70.64230000
H      -49.54450000     -33.27410000     -71.16420000
H      -49.20770000     -34.40920000     -69.73950000
C      -44.77200000     -33.20880000     -67.64570000
H      -44.19970000     -32.45740000     -67.04420000
H      -45.26830000     -33.90480000     -67.01690000
S      -48.51960000     -35.24780000     -71.95990000
S      -43.22140000     -34.08800000     -68.39310000
C      -46.76700000     -35.96740000     -71.66710000
H      -46.55300000     -35.39590000     -70.75810000
H      -46.83530000     -37.06970000     -71.47330000
C      -43.82910000     -35.24570000     -69.63910000
H      -44.93320000     -35.12580000     -69.68430000
H      -43.64060000     -36.33320000     -69.37750000
C      -43.03330000     -35.09100000     -70.95060000
H      -41.96940000     -35.16450000     -70.59270000
H      -43.30010000     -35.86890000     -71.68570000
C      -45.88660000     -35.58260000     -72.83000000
H      -46.22270000     -36.03360000     -73.78940000
H      -44.90840000     -36.06490000     -72.67760000
C      -45.62330000     -34.07470000     -73.02350000
C      -46.18650000     -33.45240000     -74.11580000
C      -44.40310000     -33.35330000     -72.52370000
H      -46.89110000     -33.89170000     -74.84080000
C      -44.21490000     -32.13400000     -73.12760000
C      -43.30650000     -33.76780000     -71.66620000
C      -42.37980000     -32.70500000     -71.63640000
S      -45.48270000     -31.86630000     -74.39690000
S      -42.82060000     -31.28490000     -72.59620000
H      -41.49090000     -32.68270000     -71.12080000
