40
Properties=species:S:1:pos:R:3 #=T CELL(abcABC):=T 1.889726e+02=T 90.00000=T Traj:=T positionsangstrom=T Step:=T 0=T Bead:=T pbc="F F F"
C      -45.51210000     -31.77030000     -69.52350000
C      -45.82220000     -32.92750000     -68.82610000
C      -46.91320000     -33.70190000     -69.26690000
C      -47.74570000     -33.23890000     -70.27800000
C      -47.37950000     -32.08090000     -71.00810000
C      -46.27820000     -31.37860000     -70.61360000
H      -44.58680000     -31.20890000     -69.31610000
H      -47.11960000     -34.69420000     -68.88410000
H      -47.99380000     -31.72730000     -71.77550000
H      -46.05000000     -30.46840000     -71.18390000
C      -48.92010000     -34.06550000     -70.77450000
H      -49.78660000     -33.45250000     -70.83980000
H      -49.23680000     -34.88080000     -69.98360000
C      -44.99920000     -33.43040000     -67.65280000
H      -44.81920000     -32.67350000     -66.89220000
H      -45.48250000     -34.41540000     -67.20130000
S      -48.39660000     -34.90610000     -72.35230000
S      -43.31340000     -33.78020000     -68.28100000
C      -47.00810000     -35.84240000     -71.78800000
H      -46.73780000     -35.61230000     -70.70430000
H      -47.22900000     -36.88680000     -71.79540000
C      -43.72700000     -35.06390000     -69.65000000
H      -44.71940000     -34.85800000     -69.96270000
H      -43.68470000     -36.07830000     -69.15490000
C      -42.87850000     -34.93230000     -70.85640000
H      -41.82260000     -35.09780000     -70.59870000
H      -42.94910000     -35.75490000     -71.55670000
C      -45.73740000     -35.72040000     -72.66950000
H      -45.95020000     -36.26530000     -73.58750000
H      -45.08670000     -36.39030000     -72.08410000
C      -45.29880000     -34.34460000     -73.11850000
C      -46.02000000     -33.59100000     -74.02620000
C      -44.19960000     -33.56130000     -72.57340000
H      -46.85620000     -34.03780000     -74.60230000
C      -44.17080000     -32.26230000     -73.09480000
C      -43.17770000     -33.67870000     -71.58370000
C      -42.41990000     -32.54220000     -71.38710000
S      -45.44390000     -31.93580000     -74.24490000
S      -42.87850000     -31.17940000     -72.46840000
H      -41.54420000     -32.36350000     -70.72940000
