40
Properties=species:S:1:pos:R:3 #=T CELL(abcABC):=T 1.889726e+02=T 90.00000=T Traj:=T positionsangstrom=T Step:=T 0=T Bead:=T pbc="F F F"
C      -45.79460000     -31.42670000     -69.46310000
C      -45.86400000     -32.78480000     -68.95530000
C      -46.73210000     -33.64650000     -69.58660000
C      -47.54920000     -33.21850000     -70.64880000
C      -47.34710000     -31.99130000     -71.18220000
C      -46.54770000     -31.04750000     -70.55730000
H      -45.22000000     -30.74590000     -68.85550000
H      -47.11310000     -34.60420000     -69.20740000
H      -47.82940000     -31.78980000     -72.14440000
H      -46.45790000     -30.07050000     -71.00910000
C      -48.61550000     -34.12720000     -71.14290000
H      -49.38860000     -33.58310000     -71.64690000
H      -48.99530000     -34.87080000     -70.44250000
C      -45.18090000     -33.17930000     -67.74700000
H      -44.94770000     -32.24030000     -67.21040000
H      -45.79410000     -33.84630000     -67.06920000
S      -48.17780000     -35.34070000     -72.51050000
S      -43.57370000     -34.05820000     -68.12580000
C      -46.50910000     -36.00530000     -72.18640000
H      -46.16210000     -35.48960000     -71.25800000
H      -46.52740000     -37.08840000     -72.03680000
C      -43.90890000     -35.26120000     -69.53230000
H      -45.00830000     -35.10980000     -69.78470000
H      -43.72280000     -36.31580000     -69.19230000
C      -42.93490000     -34.91860000     -70.66600000
H      -41.95540000     -34.96620000     -70.16510000
H      -42.98240000     -35.79580000     -71.32280000
C      -45.42310000     -35.72710000     -73.17560000
H      -45.76380000     -36.09850000     -74.15860000
H      -44.63190000     -36.38650000     -72.81680000
C      -45.05830000     -34.28310000     -73.25100000
C      -45.89860000     -33.51690000     -74.04440000
C      -44.12350000     -33.48180000     -72.48200000
H      -46.70900000     -33.76530000     -74.67340000
C      -44.26840000     -32.13410000     -72.85120000
C      -43.13830000     -33.63700000     -71.41310000
C      -42.53160000     -32.48370000     -71.09510000
S      -45.48860000     -31.81080000     -74.16900000
S      -43.10610000     -31.11800000     -71.98200000
H      -41.78820000     -32.40790000     -70.28840000
