40
Properties=species:S:1:pos:R:3 #=T CELL(abcABC):=T 1.889726e+02=T 90.00000=T Traj:=T positionsangstrom=T Step:=T 0=T Bead:=T pbc="F F F"
C      -45.31130000     -31.45350000     -69.39160000
C      -45.47450000     -32.71300000     -68.81780000
C      -46.61710000     -33.46840000     -69.11930000
C      -47.60540000     -33.00210000     -70.00190000
C      -47.40740000     -31.79650000     -70.67580000
C      -46.27010000     -31.01770000     -70.38590000
H      -44.49610000     -30.77590000     -69.26280000
H      -46.84870000     -34.38480000     -68.60380000
H      -48.19440000     -31.32200000     -71.31580000
H      -46.27610000     -29.99470000     -70.70390000
C      -48.77910000     -33.85830000     -70.38900000
H      -49.70690000     -33.24650000     -70.45540000
H      -48.95410000     -34.58120000     -69.60010000
C      -44.49480000     -33.20420000     -67.77460000
H      -43.94190000     -32.43870000     -67.23320000
H      -44.85250000     -33.78490000     -66.92950000
S      -48.48320000     -34.63960000     -72.02990000
S      -43.08720000     -34.21180000     -68.43800000
C      -46.98460000     -35.71800000     -71.74690000
H      -46.55720000     -35.37430000     -70.82610000
H      -47.26390000     -36.79200000     -71.58990000
C      -43.72440000     -35.44120000     -69.73310000
H      -44.81040000     -35.34490000     -69.83470000
H      -43.47270000     -36.47160000     -69.40550000
C      -43.09960000     -35.37030000     -71.09630000
H      -42.03530000     -35.46780000     -71.07360000
H      -43.43320000     -36.27060000     -71.63730000
C      -46.06660000     -35.67060000     -72.95220000
H      -46.71090000     -36.13750000     -73.65330000
H      -45.23120000     -36.33260000     -72.86980000
C      -45.64980000     -34.26150000     -73.25200000
C      -46.30510000     -33.44400000     -74.09210000
C      -44.48280000     -33.62920000     -72.65110000
H      -47.20920000     -33.77000000     -74.59440000
C      -44.29900000     -32.30510000     -73.19870000
C      -43.38600000     -33.99100000     -71.79730000
C      -42.49080000     -32.94890000     -71.69460000
S      -45.51600000     -31.78180000     -74.28190000
S      -42.86000000     -31.52110000     -72.56680000
H      -41.53720000     -33.16160000     -71.26990000
