40
Properties=species:S:1:pos:R:3 #=T CELL(abcABC):=T 1.889726e+02=T 90.00000=T Traj:=T positionsangstrom=T Step:=T 0=T Bead:=T pbc="F F F"
C      -49.52430000     -33.79460000     -72.54080000
C      -48.37980000     -34.56460000     -72.83030000
C      -47.90710000     -35.43590000     -71.80760000
C      -48.33740000     -35.26290000     -70.53550000
C      -49.37420000     -34.36020000     -70.26700000
C      -49.96090000     -33.62510000     -71.24120000
H      -49.84070000     -33.17990000     -73.34020000
H      -46.99260000     -36.13460000     -72.03650000
H      -49.70200000     -34.23980000     -69.23430000
H      -50.91910000     -33.10710000     -71.03550000
C      -47.74940000     -36.06170000     -69.46630000
H      -47.11940000     -36.88220000     -69.85820000
H      -48.51470000     -36.46310000     -68.82980000
C      -47.71910000     -34.43070000     -74.14410000
H      -47.62620000     -35.47190000     -74.55090000
H      -48.26910000     -33.79910000     -74.95100000
S      -46.72290000     -34.97910000     -68.32010000
S      -45.95270000     -33.67570000     -74.10230000
C      -45.47630000     -34.24450000     -69.45580000
H      -44.74870000     -35.03590000     -69.59280000
H      -45.96020000     -34.09690000     -70.43760000
C      -46.26420000     -32.07080000     -73.29220000
H      -47.33570000     -32.00740000     -73.15710000
H      -45.91190000     -31.25200000     -74.02430000
C      -45.57530000     -31.88690000     -71.93640000
H      -45.96440000     -30.95510000     -71.45080000
H      -45.88820000     -32.63520000     -71.18670000
C      -44.77160000     -32.98310000     -68.85820000
H      -44.64560000     -33.12760000     -67.78850000
H      -45.47320000     -32.07010000     -69.01470000
C      -43.48440000     -32.66780000     -69.61380000
C      -42.30690000     -32.88120000     -68.96120000
C      -43.30860000     -32.25100000     -71.01600000
H      -42.10190000     -33.35280000     -67.98140000
C      -41.91450000     -32.22610000     -71.40800000
C      -44.10990000     -31.85800000     -72.04270000
C      -43.37560000     -31.47800000     -73.19690000
S      -40.91110000     -32.65970000     -70.08380000
S      -41.60380000     -31.62520000     -72.99840000
H      -43.65030000     -31.27560000     -74.23070000
