40
Properties=species:S:1:pos:R:3 #=T CELL(abcABC):=T 1.889726e+02=T 90.00000=T Traj:=T positionsangstrom=T Step:=T 0=T Bead:=T pbc="F F F"
C      -45.20620000     -31.53060000     -69.56820000
C      -45.47560000     -32.76690000     -68.88790000
C      -46.63840000     -33.45530000     -69.18130000
C      -47.59230000     -32.98120000     -70.12300000
C      -47.35480000     -31.77280000     -70.76040000
C      -46.11580000     -31.02040000     -70.43340000
H      -44.25600000     -31.05570000     -69.33270000
H      -46.72470000     -34.42870000     -68.72520000
H      -48.01150000     -31.44840000     -71.56910000
H      -45.89800000     -30.14350000     -70.94820000
C      -48.79700000     -33.80120000     -70.42670000
H      -49.74220000     -33.25190000     -70.60200000
H      -48.98710000     -34.53120000     -69.65610000
C      -44.52910000     -33.24430000     -67.76940000
H      -44.25580000     -32.44730000     -67.13620000
H      -45.06500000     -34.10970000     -67.28900000
S      -48.67120000     -34.70710000     -72.11410000
S      -42.99760000     -34.07300000     -68.51580000
C      -47.12600000     -35.79510000     -71.85190000
H      -46.78050000     -35.31780000     -70.99130000
H      -47.40120000     -36.86810000     -71.69310000
C      -43.75460000     -35.30030000     -69.71010000
H      -44.79890000     -34.99100000     -69.89410000
H      -43.83330000     -36.24820000     -69.21610000
C      -43.10050000     -35.33000000     -71.07600000
H      -41.95110000     -35.52610000     -70.89660000
H      -43.54460000     -36.17160000     -71.63220000
C      -45.98500000     -35.75180000     -72.99080000
H      -46.41310000     -36.25220000     -73.93190000
H      -45.08410000     -36.42890000     -72.76450000
C      -45.53430000     -34.31330000     -73.23100000
C      -46.23880000     -33.45650000     -74.03260000
C      -44.36620000     -33.65880000     -72.65450000
H      -47.10570000     -33.64140000     -74.68290000
C      -44.30080000     -32.30250000     -73.08830000
C      -43.32310000     -33.98370000     -71.75580000
C      -42.43530000     -32.99010000     -71.58150000
S      -45.58800000     -31.84980000     -74.11330000
S      -42.90630000     -31.45460000     -72.41070000
H      -41.62350000     -33.08910000     -70.87420000
