40
Properties=species:S:1:pos:R:3 #=T CELL(abcABC):=T 1.889726e+02=T 90.00000=T Traj:=T positionsangstrom=T Step:=T 0=T Bead:=T pbc="F F F"
C      -44.92110000     -31.37100000     -69.50920000
C      -45.08630000     -32.57880000     -68.80360000
C      -46.33700000     -33.22250000     -68.87160000
C      -47.33260000     -32.71130000     -69.77370000
C      -47.11700000     -31.54340000     -70.50080000
C      -45.88430000     -30.82630000     -70.32430000
H      -44.03180000     -30.75630000     -69.25740000
H      -46.36260000     -34.10080000     -68.41730000
H      -47.88650000     -31.06460000     -71.18390000
H      -45.83340000     -29.92450000     -70.92230000
C      -48.60290000     -33.47950000     -69.83400000
H      -49.37670000     -32.73850000     -69.70690000
H      -48.79450000     -34.14920000     -68.95490000
C      -44.03760000     -33.07400000     -67.79320000
H      -43.36110000     -32.28960000     -67.19770000
H      -44.50610000     -33.70660000     -67.08070000
S      -48.78670000     -34.49210000     -71.30730000
S      -42.72870000     -33.99410000     -68.69750000
C      -47.16070000     -35.52850000     -71.19920000
H      -46.52840000     -34.91360000     -70.50460000
H      -47.42280000     -36.51400000     -70.72940000
C      -43.72790000     -35.15670000     -69.72300000
H      -44.79880000     -34.99070000     -69.67800000
H      -43.60370000     -36.18870000     -69.30780000
C      -43.16160000     -35.27620000     -71.10220000
H      -42.05490000     -35.40880000     -71.00680000
H      -43.52980000     -36.20050000     -71.60660000
C      -46.42750000     -35.78620000     -72.49360000
H      -47.23290000     -36.23650000     -73.11350000
H      -45.66670000     -36.56680000     -72.35730000
C      -45.82730000     -34.56690000     -73.16760000
C      -46.55610000     -33.90210000     -74.17880000
C      -44.58990000     -33.86280000     -72.95550000
H      -47.46500000     -34.17890000     -74.62390000
C      -44.50860000     -32.61590000     -73.57270000
C      -43.48710000     -33.99280000     -71.91570000
C      -42.71640000     -32.90090000     -71.80790000
S      -45.75710000     -32.38670000     -74.73390000
S      -43.07530000     -31.70790000     -73.16950000
H      -41.82300000     -32.85120000     -71.20950000
