40
Properties=species:S:1:pos:R:3 #=T CELL(abcABC):=T 1.889726e+02=T 90.00000=T Traj:=T positionsangstrom=T Step:=T 0=T Bead:=T pbc="F F F"
C      -49.53740000     -33.89570000     -72.50070000
C      -48.27000000     -34.49950000     -72.66630000
C      -47.72460000     -35.17550000     -71.54250000
C      -48.40600000     -35.21840000     -70.34740000
C      -49.70140000     -34.73520000     -70.22550000
C      -50.27240000     -34.03070000     -71.30840000
H      -49.98880000     -33.20590000     -73.27430000
H      -46.78980000     -35.58940000     -71.66030000
H      -50.13620000     -34.77290000     -69.27810000
H      -51.17790000     -33.47420000     -71.22600000
C      -47.72290000     -35.82520000     -69.09620000
H      -47.12740000     -36.63780000     -69.48580000
H      -48.48450000     -36.30920000     -68.44990000
C      -47.57040000     -34.51150000     -73.97580000
H      -47.30740000     -35.56040000     -74.27530000
H      -48.24750000     -34.28810000     -74.78550000
S      -46.61040000     -34.70840000     -68.04300000
S      -45.96330000     -33.66510000     -73.96810000
C      -45.25220000     -34.29020000     -69.18440000
H      -44.45130000     -34.97620000     -69.04270000
H      -45.77660000     -34.39700000     -70.16510000
C      -46.46690000     -31.85930000     -73.40440000
H      -47.51120000     -31.93690000     -73.18780000
H      -46.29680000     -31.10870000     -74.25560000
C      -45.65390000     -31.47800000     -72.11960000
H      -45.97030000     -30.54430000     -71.69150000
H      -45.94480000     -32.21100000     -71.28350000
C      -44.65900000     -32.92520000     -68.89730000
H      -44.49200000     -32.80800000     -67.78660000
H      -45.51020000     -32.22020000     -69.13020000
C      -43.33980000     -32.68600000     -69.68560000
C      -42.13940000     -32.92270000     -69.17450000
C      -43.31180000     -32.23670000     -71.11950000
H      -42.01950000     -33.24580000     -68.16010000
C      -42.01800000     -32.39370000     -71.59610000
C      -44.15030000     -31.73820000     -72.20650000
C      -43.40340000     -31.42240000     -73.30130000
S      -40.85150000     -32.80130000     -70.34630000
S      -41.72900000     -31.87550000     -73.28860000
H      -43.87620000     -31.13430000     -74.19020000
