40
Properties=species:S:1:pos:R:3 #=T CELL(abcABC):=T 1.889726e+02=T 90.00000=T Traj:=T positionsangstrom=T Step:=T 0=T Bead:=T pbc="F F F"
C      -44.97000000     -31.38030000     -69.60510000
C      -45.14460000     -32.46730000     -68.79470000
C      -46.37300000     -33.10940000     -68.70190000
C      -47.40210000     -32.72550000     -69.57160000
C      -47.26920000     -31.57060000     -70.36900000
C      -46.07160000     -30.92190000     -70.34980000
H      -44.00140000     -30.88360000     -69.66800000
H      -46.59830000     -33.85470000     -67.98250000
H      -48.04730000     -31.11690000     -71.04360000
H      -45.89760000     -30.04160000     -71.06410000
C      -48.57240000     -33.59020000     -69.62340000
H      -49.46560000     -32.97410000     -69.71540000
H      -48.64130000     -34.25690000     -68.75040000
C      -43.99850000     -32.94940000     -67.87160000
H      -43.43420000     -32.08750000     -67.63780000
H      -44.37020000     -33.37730000     -66.91900000
S      -48.60580000     -34.63390000     -71.29150000
S      -42.81000000     -34.19200000     -68.54530000
C      -47.02670000     -35.54780000     -71.14270000
H      -46.42790000     -34.90780000     -70.51320000
H      -46.99780000     -36.45860000     -70.58920000
C      -43.64790000     -35.27550000     -69.80940000
H      -44.74490000     -35.01140000     -69.78740000
H      -43.51180000     -36.25930000     -69.45720000
C      -43.23880000     -35.22550000     -71.30060000
H      -42.17240000     -35.52530000     -71.39740000
H      -43.77420000     -36.00480000     -71.74940000
C      -46.30840000     -35.78320000     -72.56290000
H      -46.91300000     -36.22830000     -73.29380000
H      -45.55030000     -36.62950000     -72.43990000
C      -45.81150000     -34.47520000     -73.12750000
C      -46.51420000     -33.84660000     -74.19350000
C      -44.66420000     -33.68230000     -72.83430000
H      -47.40540000     -34.27030000     -74.65170000
C      -44.63130000     -32.45150000     -73.51340000
C      -43.45890000     -33.91210000     -72.10660000
C      -42.57230000     -32.86970000     -72.24160000
S      -45.76710000     -32.42980000     -74.81870000
S      -43.10890000     -31.55760000     -73.13880000
H      -41.80120000     -32.78380000     -71.52310000
