40
Properties=species:S:1:pos:R:3 #=T CELL(abcABC):=T 1.889726e+02=T 90.00000=T Traj:=T positionsangstrom=T Step:=T 0=T Bead:=T pbc="F F F"
C      -49.68980000     -34.06510000     -72.46430000
C      -48.35340000     -34.58360000     -72.65220000
C      -47.67070000     -35.06510000     -71.52500000
C      -48.25970000     -35.05410000     -70.24750000
C      -49.58150000     -34.60980000     -70.13840000
C      -50.27710000     -34.11790000     -71.22230000
H      -50.13820000     -33.53400000     -73.26390000
H      -46.55510000     -35.22520000     -71.53990000
H      -50.07940000     -34.71530000     -69.17550000
H      -51.36300000     -33.72760000     -71.16430000
C      -47.47220000     -35.65230000     -69.03080000
H      -46.66530000     -36.29600000     -69.40130000
H      -48.18790000     -36.17630000     -68.46150000
C      -47.76520000     -34.50990000     -74.06090000
H      -47.53870000     -35.47080000     -74.52120000
H      -48.44710000     -33.87050000     -74.67790000
S      -46.65420000     -34.36440000     -67.89910000
S      -46.12290000     -33.61840000     -74.11310000
C      -45.10620000     -34.21390000     -68.86880000
H      -44.34780000     -34.75280000     -68.30120000
H      -45.28030000     -34.65690000     -69.81300000
C      -46.45850000     -32.15830000     -73.14430000
H      -47.52350000     -32.27390000     -72.79120000
H      -46.42870000     -31.30680000     -73.80770000
C      -45.58730000     -31.94150000     -71.89820000
H      -46.05590000     -30.96810000     -71.51900000
H      -45.83910000     -32.61420000     -71.10290000
C      -44.56040000     -32.79590000     -69.04380000
H      -44.33950000     -32.47990000     -68.03370000
H      -45.27630000     -32.09210000     -69.49750000
C      -43.28460000     -32.74900000     -69.83600000
C      -42.06330000     -33.08920000     -69.34030000
C      -43.20210000     -32.34520000     -71.19360000
H      -41.80450000     -33.31070000     -68.28650000
C      -41.92040000     -32.35390000     -71.71000000
C      -44.14440000     -31.92240000     -72.13910000
C      -43.58450000     -31.57150000     -73.35320000
S      -40.78980000     -32.90460000     -70.50920000
S      -41.85140000     -31.79930000     -73.36360000
H      -44.20280000     -31.14370000     -74.12570000
