40
Properties=species:S:1:pos:R:3 #=T CELL(abcABC):=T 1.889726e+02=T 90.00000=T Traj:=T positionsangstrom=T Step:=T 0=T Bead:=T pbc="F F F"
C      -44.93540000     -31.47630000     -69.67360000
C      -45.19070000     -32.50260000     -68.80140000
C      -46.33530000     -33.31310000     -69.00440000
C      -47.28570000     -32.92620000     -69.99330000
C      -46.96930000     -31.84720000     -70.92280000
C      -45.75870000     -31.18590000     -70.77190000
H      -44.00460000     -30.85980000     -69.60360000
H      -46.74800000     -34.01010000     -68.25730000
H      -47.75090000     -31.47930000     -71.55760000
H      -45.59960000     -30.34010000     -71.39170000
C      -48.56480000     -33.73610000     -70.07050000
H      -49.36580000     -33.02020000     -70.04480000
H      -48.64300000     -34.35920000     -69.09130000
C      -44.14610000     -32.97810000     -67.82190000
H      -43.69240000     -32.00820000     -67.41620000
H      -44.55160000     -33.62550000     -67.04410000
S      -48.72600000     -34.84470000     -71.57150000
S      -42.71640000     -33.79430000     -68.78050000
C      -47.10980000     -35.85320000     -71.47290000
H      -46.51770000     -35.65200000     -70.59750000
H      -47.44210000     -36.86220000     -71.25530000
C      -43.38910000     -35.22900000     -69.73270000
H      -44.42730000     -35.22620000     -69.40150000
H      -42.82910000     -36.11690000     -69.38260000
C      -43.12760000     -35.19550000     -71.20610000
H      -42.07390000     -35.55340000     -71.37550000
H      -43.74580000     -35.95890000     -71.62380000
C      -46.23560000     -35.81620000     -72.69130000
H      -46.73240000     -36.31310000     -73.50380000
H      -45.45180000     -36.52340000     -72.49410000
C      -45.82870000     -34.43730000     -73.04760000
C      -46.62140000     -33.72690000     -73.87960000
C      -44.68920000     -33.65720000     -72.62810000
H      -47.60940000     -34.07340000     -74.20920000
C      -44.60920000     -32.42680000     -73.17930000
C      -43.47360000     -33.89690000     -71.82650000
C      -42.57690000     -32.88610000     -71.92430000
S      -45.98380000     -32.14680000     -74.16730000
S      -43.20450000     -31.47680000     -72.88090000
H      -41.65610000     -32.64040000     -71.40530000
