40
Properties=species:S:1:pos:R:3 #=T CELL(abcABC):=T 1.889726e+02=T 90.00000=T Traj:=T positionsangstrom=T Step:=T 0=T Bead:=T pbc="F F F"
C      -43.79700000     -31.12960000     -68.77700000
C      -45.12240000     -31.68070000     -68.61940000
C      -46.16770000     -31.15750000     -69.45410000
C      -45.87890000     -30.11830000     -70.32180000
C      -44.61800000     -29.44080000     -70.27800000
C      -43.59500000     -29.95900000     -69.50880000
H      -43.05430000     -31.41850000     -68.04690000
H      -47.20560000     -31.51740000     -69.45360000
H      -44.41080000     -28.68800000     -71.02730000
H      -42.66410000     -29.36660000     -69.57020000
C      -46.99020000     -29.56290000     -71.09550000
H      -46.59020000     -28.72800000     -71.71300000
H      -47.73100000     -29.06860000     -70.45730000
C      -45.47780000     -32.70470000     -67.59270000
H      -44.44260000     -32.96410000     -67.15070000
H      -45.90040000     -32.06130000     -66.69980000
S      -47.90570000     -30.73260000     -72.23380000
S      -46.59070000     -33.93780000     -68.12540000
C      -46.45510000     -31.63480000     -72.95660000
H      -46.57430000     -31.43660000     -73.97740000
H      -45.55180000     -31.20610000     -72.56240000
C      -45.43440000     -34.77790000     -69.25210000
H      -44.81490000     -35.36190000     -68.59960000
H      -44.83740000     -34.05020000     -69.73690000
C      -46.15500000     -35.66920000     -70.32980000
H      -46.52070000     -36.54950000     -69.82870000
H      -47.07560000     -35.15660000     -70.72540000
C      -46.44620000     -33.08960000     -72.65720000
H      -47.37840000     -33.51830000     -73.11470000
H      -46.50380000     -33.18720000     -71.60670000
C      -45.20810000     -33.89880000     -73.17240000
C      -44.40940000     -33.59360000     -74.30540000
C      -44.89370000     -35.21480000     -72.58720000
H      -44.42200000     -32.73290000     -74.97320000
C      -43.91210000     -35.81960000     -73.32200000
C      -45.21790000     -36.04200000     -71.44210000
C      -44.70110000     -37.26940000     -71.55490000
S      -43.39380000     -34.93350000     -74.74010000
S      -43.57220000     -37.45700000     -72.82160000
H      -44.91080000     -38.02370000     -70.78240000
