40
Properties=species:S:1:pos:R:3 #=T CELL(abcABC):=T 1.889726e+02=T 90.00000=T Traj:=T positionsangstrom=T Step:=T 0=T Bead:=T pbc="F F F"
C      -45.53420000     -32.86580000     -69.01470000
C      -46.67100000     -32.36620000     -69.61440000
C      -47.58900000     -33.23370000     -70.19170000
C      -47.30780000     -34.55230000     -70.35020000
C      -46.19190000     -35.10430000     -69.70450000
C      -45.31290000     -34.23420000     -69.05350000
H      -44.74210000     -32.22370000     -68.61130000
H      -48.43300000     -32.77930000     -70.77850000
H      -45.91500000     -36.17280000     -69.73810000
H      -44.45570000     -34.52580000     -68.50300000
C      -48.24860000     -35.49320000     -71.07210000
H      -49.25030000     -35.28190000     -70.86810000
H      -48.03940000     -36.53040000     -70.72770000
C      -47.00170000     -30.94600000     -69.53560000
H      -47.64420000     -30.69220000     -70.37950000
H      -47.50200000     -30.80170000     -68.56490000
S      -48.03940000     -35.50340000     -72.91220000
S      -45.55930000     -29.77250000     -69.64620000
C      -47.31290000     -33.89870000     -73.41210000
H      -47.91860000     -33.49710000     -74.23400000
H      -47.38490000     -33.21900000     -72.64290000
C      -45.26180000     -29.86380000     -71.51300000
H      -44.29430000     -29.34770000     -71.64350000
H      -45.96980000     -29.20970000     -71.92170000
C      -45.20580000     -31.20180000     -72.13960000
H      -46.08270000     -31.84130000     -71.80330000
H      -45.32400000     -31.06940000     -73.19240000
C      -45.91470000     -34.03030000     -74.11940000
H      -45.71450000     -33.23820000     -74.86010000
H      -46.00770000     -34.96240000     -74.65600000
C      -44.85630000     -34.26910000     -73.16080000
C      -44.50260000     -35.57110000     -73.13670000
C      -44.03840000     -33.45660000     -72.29540000
H      -44.79620000     -36.43740000     -73.57570000
C      -43.05120000     -34.23710000     -71.63470000
C      -44.03340000     -32.06320000     -71.87030000
C      -42.94400000     -31.80090000     -71.02450000
S      -43.11270000     -35.92040000     -72.03990000
S      -41.95300000     -33.21890000     -70.67500000
H      -42.69510000     -30.81210000     -70.63070000
