40
Properties=species:S:1:pos:R:3 #=T CELL(abcABC):=T 1.889726e+02=T 90.00000=T Traj:=T positionsangstrom=T Step:=T 0=T Bead:=T pbc="F F F"
C      -45.50680000     -32.54650000     -69.01330000
C      -46.70920000     -32.17600000     -69.58210000
C      -47.55130000     -33.11550000     -70.10830000
C      -47.19490000     -34.48990000     -70.06480000
C      -46.06990000     -34.88600000     -69.30110000
C      -45.25520000     -33.89140000     -68.76930000
H      -44.85700000     -31.73980000     -68.74440000
H      -48.51540000     -32.91840000     -70.58410000
H      -45.72100000     -35.88590000     -69.27600000
H      -44.38150000     -34.14800000     -68.18930000
C      -48.08220000     -35.56650000     -70.55810000
H      -49.12380000     -35.27960000     -70.54260000
H      -47.95980000     -36.46460000     -70.07430000
C      -47.12380000     -30.65520000     -69.67630000
H      -47.80860000     -30.51150000     -70.49010000
H      -47.71190000     -30.22830000     -68.85340000
S      -47.65310000     -36.02510000     -72.40220000
S      -45.63480000     -29.61110000     -69.96640000
C      -47.49950000     -34.27900000     -73.16550000
H      -48.34250000     -34.18200000     -73.78790000
H      -47.72300000     -33.53700000     -72.42150000
C      -45.30990000     -29.81740000     -71.79700000
H      -44.38160000     -29.33500000     -71.94680000
H      -46.09350000     -29.19030000     -72.28520000
C      -45.41160000     -31.27480000     -72.34410000
H      -46.35400000     -31.74290000     -72.05070000
H      -45.50230000     -31.19180000     -73.47120000
C      -46.16680000     -34.03860000     -73.93240000
H      -46.10060000     -32.98890000     -74.29370000
H      -46.10790000     -34.62140000     -74.88690000
C      -44.90510000     -34.45030000     -73.22320000
C      -44.38370000     -35.74550000     -73.21220000
C      -44.14170000     -33.61400000     -72.35320000
H      -44.79150000     -36.58500000     -73.73640000
C      -43.00290000     -34.16130000     -71.86270000
C      -44.25100000     -32.18840000     -72.02370000
C      -43.19930000     -31.75510000     -71.29100000
S      -42.96270000     -35.96290000     -72.27330000
S      -42.05090000     -33.05860000     -70.86740000
H      -42.86230000     -30.77550000     -70.92060000
