40
Properties=species:S:1:pos:R:3 #=T CELL(abcABC):=T 1.889726e+02=T 90.00000=T Traj:=T positionsangstrom=T Step:=T 0=T Bead:=T pbc="F F F"
C      -45.56390000     -33.02550000     -68.84510000
C      -46.63930000     -32.38640000     -69.51730000
C      -47.60190000     -33.18780000     -70.22020000
C      -47.30460000     -34.54690000     -70.45710000
C      -46.20870000     -35.09850000     -69.82460000
C      -45.34650000     -34.40490000     -68.95520000
H      -44.86890000     -32.43550000     -68.24820000
H      -48.56360000     -32.77440000     -70.47720000
H      -46.01810000     -36.13160000     -69.90940000
H      -44.49430000     -34.84480000     -68.48580000
C      -48.32390000     -35.39180000     -71.25040000
H      -49.37560000     -35.04360000     -71.12350000
H      -48.26660000     -36.48450000     -70.96040000
C      -46.74530000     -30.86940000     -69.43540000
H      -47.65100000     -30.57060000     -70.01480000
H      -46.87250000     -30.66000000     -68.35050000
S      -48.00180000     -35.40590000     -73.02890000
S      -45.26540000     -29.91560000     -69.76140000
C      -47.37630000     -33.73370000     -73.50360000
H      -48.06610000     -33.32640000     -74.25410000
H      -47.46590000     -33.14230000     -72.53470000
C      -45.11900000     -29.80060000     -71.54330000
H      -44.13870000     -29.31370000     -71.73450000
H      -45.94580000     -29.13770000     -71.91010000
C      -45.17340000     -31.06390000     -72.40190000
H      -46.21720000     -31.38820000     -72.34950000
H      -44.93070000     -30.81490000     -73.47920000
C      -45.95670000     -33.85610000     -73.97440000
H      -45.61610000     -32.84070000     -74.24570000
H      -45.94530000     -34.51060000     -74.91680000
C      -44.90230000     -34.43230000     -73.04830000
C      -44.47410000     -35.70240000     -72.96300000
C      -44.14490000     -33.58520000     -72.16740000
H      -44.70290000     -36.62040000     -73.42130000
C      -43.08080000     -34.28110000     -71.57720000
C      -44.20830000     -32.12380000     -71.93140000
C      -43.14210000     -31.81600000     -71.05020000
S      -43.11460000     -35.92500000     -71.90350000
S      -42.16130000     -33.18130000     -70.65190000
H      -42.90950000     -30.79360000     -70.72340000
