40
Properties=species:S:1:pos:R:3 #=T CELL(abcABC):=T 1.889726e+02=T 90.00000=T Traj:=T positionsangstrom=T Step:=T 0=T Bead:=T pbc="F F F"
C      -45.66580000     -32.63760000     -68.55320000
C      -46.69590000     -32.13750000     -69.38970000
C      -47.52650000     -33.06670000     -69.96650000
C      -47.36230000     -34.42180000     -69.79560000
C      -46.39800000     -34.94980000     -68.94170000
C      -45.55010000     -33.99470000     -68.37320000
H      -45.00540000     -31.96980000     -68.01260000
H      -48.28900000     -32.77700000     -70.72320000
H      -46.26700000     -36.03020000     -68.75370000
H      -44.75380000     -34.33150000     -67.66150000
C      -48.29030000     -35.39110000     -70.57970000
H      -49.16520000     -34.86340000     -70.87700000
H      -48.73500000     -36.23490000     -69.94410000
C      -46.99790000     -30.68550000     -69.59630000
H      -47.87080000     -30.41000000     -70.24350000
H      -47.15640000     -30.22060000     -68.60190000
S      -47.46580000     -36.16050000     -72.06970000
S      -45.48700000     -29.76110000     -70.17520000
C      -47.43060000     -34.69640000     -73.18190000
H      -48.24020000     -34.74230000     -73.92550000
H      -47.55000000     -33.87230000     -72.47670000
C      -45.58330000     -29.96200000     -72.06350000
H      -44.94520000     -29.22170000     -72.54900000
H      -46.55550000     -29.50670000     -72.29660000
C      -45.54170000     -31.31770000     -72.78340000
H      -46.43280000     -31.91870000     -72.54180000
H      -45.52370000     -31.08370000     -73.83870000
C      -46.18530000     -34.38270000     -74.05860000
H      -46.26800000     -33.27180000     -74.25460000
H      -46.29530000     -34.88120000     -75.02530000
C      -44.85590000     -34.54100000     -73.29240000
C      -44.11510000     -35.74080000     -73.22920000
C      -44.21250000     -33.54070000     -72.51940000
H      -44.36740000     -36.69060000     -73.67990000
C      -42.97110000     -34.04440000     -71.96610000
C      -44.29030000     -32.12710000     -72.35990000
C      -43.29490000     -31.61320000     -71.62630000
S      -42.67710000     -35.68990000     -72.27750000
S      -42.14550000     -32.78070000     -70.98760000
H      -43.32860000     -30.60970000     -71.14760000
