40
Properties=species:S:1:pos:R:3 #=T CELL(abcABC):=T 1.889726e+02=T 90.00000=T Traj:=T positionsangstrom=T Step:=T 0=T Bead:=T pbc="F F F"
C      -46.20820000     -32.33270000     -68.60290000
C      -47.19100000     -32.04680000     -69.50460000
C      -48.04840000     -33.01000000     -70.06360000
C      -47.82720000     -34.31360000     -69.69290000
C      -46.74330000     -34.64490000     -68.83540000
C      -45.93980000     -33.68150000     -68.27600000
H      -45.65840000     -31.45780000     -68.25720000
H      -48.70990000     -32.66550000     -70.85700000
H      -46.79880000     -35.64190000     -68.37110000
H      -45.17600000     -33.89390000     -67.48010000
C      -48.60060000     -35.46780000     -70.29900000
H      -49.48590000     -35.03850000     -70.75400000
H      -49.00180000     -36.14230000     -69.60830000
C      -47.36900000     -30.57440000     -69.86920000
H      -48.17630000     -30.54750000     -70.52700000
H      -47.70920000     -30.04530000     -68.94340000
S      -47.41620000     -36.20680000     -71.57230000
S      -45.89150000     -29.66120000     -70.53720000
C      -47.10470000     -34.82830000     -72.73630000
H      -47.93670000     -34.73990000     -73.33640000
H      -47.02720000     -33.98940000     -72.01910000
C      -45.85580000     -30.22450000     -72.31430000
H      -45.05270000     -29.68610000     -72.78690000
H      -46.79760000     -29.92370000     -72.63770000
C      -45.69910000     -31.66240000     -72.66580000
H      -46.52820000     -32.33130000     -72.39830000
H      -45.55080000     -31.67140000     -73.78680000
C      -45.80140000     -35.08790000     -73.61170000
H      -45.89830000     -34.50820000     -74.53480000
H      -45.81100000     -36.13240000     -74.00760000
C      -44.49300000     -34.89680000     -73.00790000
C      -43.57840000     -35.95280000     -73.04040000
C      -43.94100000     -33.68500000     -72.46690000
H      -43.75390000     -36.94000000     -73.42260000
C      -42.63940000     -33.92830000     -71.97390000
C      -44.37810000     -32.31420000     -72.18490000
C      -43.27020000     -31.59920000     -71.75890000
S      -41.99870000     -35.53420000     -72.37980000
S      -41.77750000     -32.51340000     -71.57640000
H      -43.16960000     -30.51740000     -71.49910000
