40
Properties=species:S:1:pos:R:3 #=T CELL(abcABC):=T 1.889726e+02=T 90.00000=T Traj:=T positionsangstrom=T Step:=T 0=T Bead:=T pbc="F F F"
C      -46.16340000     -32.23300000     -68.68900000
C      -47.18500000     -31.95540000     -69.64430000
C      -48.03330000     -32.97880000     -70.05240000
C      -47.82110000     -34.32030000     -69.61650000
C      -46.91240000     -34.52250000     -68.57260000
C      -45.99550000     -33.52000000     -68.15200000
H      -45.47380000     -31.36530000     -68.46860000
H      -48.86620000     -32.67810000     -70.74300000
H      -46.60290000     -35.54330000     -68.38190000
H      -45.12400000     -33.76730000     -67.52350000
C      -48.55470000     -35.47550000     -70.31710000
H      -49.45130000     -35.07490000     -70.86930000
H      -48.87120000     -36.26270000     -69.59360000
C      -47.43390000     -30.58170000     -70.06830000
H      -48.09830000     -30.40400000     -70.89890000
H      -47.76830000     -29.93450000     -69.24230000
S      -47.57320000     -36.44660000     -71.58010000
S      -45.92510000     -29.63130000     -70.65740000
C      -47.06650000     -34.90860000     -72.55790000
H      -47.91320000     -34.57430000     -73.24760000
H      -46.89020000     -34.05310000     -71.90830000
C      -45.74600000     -30.23090000     -72.42980000
H      -44.87640000     -29.85560000     -72.96880000
H      -46.52830000     -29.69110000     -73.05680000
C      -45.63340000     -31.70510000     -72.63520000
H      -46.46170000     -32.21070000     -72.18580000
H      -45.84050000     -31.81360000     -73.66670000
C      -45.84770000     -35.11430000     -73.48800000
H      -46.04050000     -34.50970000     -74.36630000
H      -45.88580000     -36.15430000     -73.80260000
C      -44.45200000     -34.85500000     -73.03880000
C      -43.60040000     -35.94560000     -72.90550000
C      -43.80470000     -33.65130000     -72.57220000
H      -43.81630000     -36.96880000     -73.08070000
C      -42.49260000     -33.85570000     -72.21810000
C      -44.29130000     -32.30440000     -72.25100000
C      -43.27150000     -31.58810000     -71.68300000
S      -41.96480000     -35.52710000     -72.41050000
S      -41.77880000     -32.51510000     -71.42150000
H      -43.26570000     -30.52280000     -71.25190000
