40
Properties=species:S:1:pos:R:3 #=T CELL(abcABC):=T 1.889726e+02=T 90.00000=T Traj:=T positionsangstrom=T Step:=T 0=T Bead:=T pbc="F F F"
C      -46.18140000     -32.32770000     -68.44060000
C      -47.18960000     -32.00680000     -69.38640000
C      -47.99070000     -32.98030000     -69.98330000
C      -47.70300000     -34.35060000     -69.77260000
C      -46.69570000     -34.65520000     -68.84410000
C      -45.98170000     -33.68720000     -68.13660000
H      -45.57280000     -31.54020000     -68.13460000
H      -48.83580000     -32.65880000     -70.61980000
H      -46.32930000     -35.67310000     -68.80140000
H      -45.15500000     -33.99610000     -67.48760000
C      -48.41890000     -35.42300000     -70.51270000
H      -49.17640000     -35.02020000     -71.19540000
H      -48.73880000     -36.19590000     -69.78930000
C      -47.33010000     -30.58720000     -69.76820000
H      -48.19400000     -30.54700000     -70.53530000
H      -47.61620000     -29.92770000     -68.93770000
S      -47.32000000     -36.32250000     -71.69590000
S      -45.78670000     -29.79840000     -70.43390000
C      -47.14400000     -34.90890000     -72.83940000
H      -48.02490000     -34.77980000     -73.52700000
H      -47.20770000     -33.97820000     -72.24310000
C      -45.79780000     -30.25160000     -72.19320000
H      -44.90980000     -29.63670000     -72.57030000
H      -46.78440000     -29.87520000     -72.65760000
C      -45.69850000     -31.76730000     -72.54470000
H      -46.39270000     -32.29810000     -71.85710000
H      -46.06410000     -32.00090000     -73.52860000
C      -45.89970000     -34.84250000     -73.81230000
H      -45.95550000     -33.95370000     -74.47700000
H      -46.01230000     -35.72150000     -74.40740000
C      -44.60000000     -34.74190000     -73.08990000
C      -43.81620000     -35.87670000     -72.96060000
C      -43.90590000     -33.58690000     -72.58930000
H      -44.13730000     -36.88940000     -73.17900000
C      -42.60410000     -33.88760000     -72.12070000
C      -44.28990000     -32.27800000     -72.28890000
C      -43.24120000     -31.45690000     -71.85250000
S      -42.22210000     -35.54730000     -72.39250000
S      -41.82320000     -32.50740000     -71.45210000
H      -43.35050000     -30.47950000     -71.42240000
