40
Properties=species:S:1:pos:R:3 #=T CELL(abcABC):=T 1.889726e+02=T 90.00000=T Traj:=T positionsangstrom=T Step:=T 0=T Bead:=T pbc="F F F"
C      -45.83820000     -31.65300000     -68.99540000
C      -46.90660000     -31.50280000     -69.94630000
C      -47.75090000     -32.58240000     -70.24000000
C      -47.38220000     -33.78100000     -69.68460000
C      -46.25600000     -34.00000000     -68.91330000
C      -45.50140000     -32.89650000     -68.48100000
H      -45.24750000     -30.83740000     -68.60970000
H      -48.53080000     -32.40600000     -70.97810000
H      -46.13560000     -35.01780000     -68.47400000
H      -44.51260000     -32.99850000     -67.89440000
C      -48.20530000     -35.07190000     -69.93430000
H      -49.17760000     -34.73780000     -70.25670000
H      -48.44170000     -35.55890000     -69.00670000
C      -47.09410000     -30.14290000     -70.61040000
H      -47.94440000     -30.16940000     -71.31980000
H      -47.27930000     -29.38580000     -69.86730000
S      -47.33820000     -36.15520000     -71.14680000
S      -45.60430000     -29.65780000     -71.57200000
C      -47.31190000     -35.04550000     -72.63080000
H      -48.24200000     -35.24390000     -73.29460000
H      -47.31710000     -33.98400000     -72.25900000
C      -45.75440000     -30.46820000     -73.22410000
H      -45.00110000     -29.90350000     -73.86820000
H      -46.70730000     -30.13810000     -73.68160000
C      -45.55820000     -32.02960000     -73.34480000
H      -46.45460000     -32.54140000     -72.93980000
H      -45.39640000     -32.26550000     -74.45010000
C      -46.07750000     -35.36250000     -73.41720000
H      -46.08940000     -34.66720000     -74.29080000
H      -46.02910000     -36.37870000     -73.82620000
C      -44.76610000     -35.25450000     -72.65840000
C      -44.02140000     -36.36470000     -72.30510000
C      -44.07350000     -34.03710000     -72.33080000
H      -44.28730000     -37.32890000     -72.67640000
C      -42.95240000     -34.25040000     -71.56970000
C      -44.36520000     -32.59710000     -72.58150000
C      -43.37860000     -31.77140000     -72.02850000
S      -42.57890000     -35.97010000     -71.40630000
S      -42.18860000     -32.72300000     -71.05440000
H      -43.33980000     -30.67590000     -71.99520000
