40
Properties=species:S:1:pos:R:3 #=T CELL(abcABC):=T 1.889726e+02=T 90.00000=T Traj:=T positionsangstrom=T Step:=T 0=T Bead:=T pbc="F F F"
C      -44.30780000     -31.29900000     -70.10540000
C      -45.02070000     -31.79640000     -68.97140000
C      -46.41470000     -32.06860000     -69.09830000
C      -47.09340000     -31.74570000     -70.29570000
C      -46.38400000     -31.20380000     -71.39810000
C      -45.01950000     -30.97840000     -71.26650000
H      -43.20280000     -31.19500000     -70.03780000
H      -46.96660000     -32.49780000     -68.26950000
H      -46.83900000     -30.70770000     -72.20970000
H      -44.48620000     -30.61850000     -72.14790000
C      -48.57240000     -31.90750000     -70.40990000
H      -49.01610000     -31.07950000     -70.96370000
H      -49.13110000     -31.95660000     -69.45130000
C      -44.26920000     -32.39200000     -67.83550000
H      -43.71200000     -31.68560000     -67.17680000
H      -44.88180000     -33.09900000     -67.19570000
S      -48.78900000     -33.60780000     -71.40420000
S      -42.94530000     -33.52670000     -68.48010000
C      -47.74520000     -34.94360000     -70.61650000
H      -47.17610000     -34.49860000     -69.75650000
H      -48.38990000     -35.73660000     -70.16720000
C      -44.12570000     -34.79020000     -69.07600000
H      -45.03470000     -34.26690000     -69.10240000
H      -44.20730000     -35.69870000     -68.31860000
C      -43.68170000     -35.43730000     -70.38500000
H      -42.73450000     -35.96840000     -70.30370000
H      -44.43630000     -36.22540000     -70.55420000
C      -46.87490000     -35.74970000     -71.63910000
H      -47.54220000     -36.35100000     -72.29020000
H      -46.19960000     -36.50230000     -71.09420000
C      -46.11750000     -34.84880000     -72.58670000
C      -46.67230000     -34.54260000     -73.84490000
C      -44.77730000     -34.29440000     -72.45390000
H      -47.67530000     -34.73840000     -74.08020000
C      -44.40060000     -33.51160000     -73.58200000
C      -43.74630000     -34.45460000     -71.55050000
C      -42.59710000     -33.91670000     -71.96470000
S      -45.65030000     -33.56850000     -74.84670000
S      -42.74230000     -33.00540000     -73.41780000
H      -41.63770000     -34.04800000     -71.40670000
