40
Properties=species:S:1:pos:R:3 #=T CELL(abcABC):=T 1.889726e+02=T 90.00000=T Traj:=T positionsangstrom=T Step:=T 0=T Bead:=T pbc="F F F"
C      -44.38720000     -31.22720000     -70.42570000
C      -44.99270000     -31.78740000     -69.30770000
C      -46.35350000     -32.06480000     -69.32740000
C      -47.16680000     -31.76400000     -70.40980000
C      -46.55690000     -31.15000000     -71.53420000
C      -45.15520000     -31.01760000     -71.61410000
H      -43.29970000     -31.15060000     -70.31250000
H      -46.87360000     -32.52990000     -68.45740000
H      -47.22830000     -30.73520000     -72.26780000
H      -44.70460000     -30.50880000     -72.45770000
C      -48.61560000     -32.04330000     -70.31780000
H      -49.15420000     -31.20200000     -70.79230000
H      -48.90050000     -32.18690000     -69.28970000
C      -44.20100000     -32.26000000     -68.13520000
H      -43.54950000     -31.40210000     -67.81600000
H      -44.79920000     -32.39110000     -67.24840000
S      -49.00950000     -33.51090000     -71.39390000
S      -43.12050000     -33.73130000     -68.45360000
C      -47.94090000     -34.93070000     -70.96520000
H      -47.21800000     -34.55210000     -70.19500000
H      -48.61480000     -35.75460000     -70.53860000
C      -44.27260000     -35.07970000     -68.90030000
H      -45.30900000     -34.61040000     -68.94170000
H      -44.34840000     -35.84690000     -68.16120000
C      -43.84330000     -35.89080000     -70.21970000
H      -42.88350000     -36.42950000     -70.15640000
H      -44.58220000     -36.59690000     -70.45700000
C      -47.12330000     -35.57760000     -72.13030000
H      -47.87400000     -35.85970000     -72.91850000
H      -46.62770000     -36.48410000     -71.67730000
C      -46.13280000     -34.65520000     -72.78200000
C      -46.54110000     -33.83350000     -73.80170000
C      -44.71130000     -34.49250000     -72.44380000
H      -47.58230000     -33.86030000     -74.19630000
C      -44.16420000     -33.53250000     -73.31960000
C      -43.71660000     -34.88640000     -71.37760000
C      -42.51600000     -34.31950000     -71.61140000
S      -45.27980000     -32.95340000     -74.57690000
S      -42.44530000     -33.28490000     -73.07040000
H      -41.56580000     -34.49690000     -71.05970000
