40
Properties=species:S:1:pos:R:3 #=T CELL(abcABC):=T 1.889726e+02=T 90.00000=T Traj:=T positionsangstrom=T Step:=T 0=T Bead:=T pbc="F F F"
C      -44.15150000     -31.34850000     -70.12030000
C      -44.92160000     -32.05290000     -69.19840000
C      -46.29910000     -32.13730000     -69.33200000
C      -46.91080000     -31.55410000     -70.43210000
C      -46.19630000     -30.94190000     -71.47820000
C      -44.81850000     -30.75330000     -71.21990000
H      -43.10690000     -31.14580000     -69.96710000
H      -46.85170000     -32.66160000     -68.56640000
H      -46.62540000     -30.55150000     -72.41770000
H      -44.15790000     -30.16610000     -71.93180000
C      -48.38710000     -31.68380000     -70.51540000
H      -48.90080000     -30.90170000     -70.97180000
H      -48.78440000     -31.83800000     -69.43550000
C      -44.23330000     -32.59870000     -67.95970000
H      -43.43620000     -32.04820000     -67.49750000
H      -44.90010000     -32.91570000     -67.14770000
S      -48.91750000     -33.22060000     -71.48980000
S      -43.12550000     -34.06090000     -68.35410000
C      -47.89780000     -34.54420000     -70.73030000
H      -47.00190000     -34.10140000     -70.30520000
H      -48.44890000     -35.15640000     -70.04320000
C      -44.39220000     -35.19430000     -69.10330000
H      -45.32540000     -34.60960000     -69.25820000
H      -44.70110000     -36.02590000     -68.42110000
C      -44.02030000     -35.92480000     -70.43260000
H      -43.13580000     -36.54560000     -70.23400000
H      -44.89460000     -36.59170000     -70.64280000
C      -47.34290000     -35.36320000     -71.89110000
H      -48.14160000     -35.59020000     -72.59270000
H      -46.96000000     -36.29880000     -71.56010000
C      -46.24540000     -34.55620000     -72.59680000
C      -46.68980000     -33.88680000     -73.72770000
C      -44.80460000     -34.43480000     -72.49590000
H      -47.64430000     -33.88890000     -74.17760000
C      -44.24140000     -33.49150000     -73.36560000
C      -43.79510000     -35.00180000     -71.59960000
C      -42.53620000     -34.62590000     -71.92040000
S      -45.48790000     -32.92510000     -74.48650000
S      -42.52750000     -33.44430000     -73.35720000
H      -41.67760000     -35.13070000     -71.64340000
