40
Properties=species:S:1:pos:R:3 #=T CELL(abcABC):=T 1.889726e+02=T 90.00000=T Traj:=T positionsangstrom=T Step:=T 0=T Bead:=T pbc="F F F"
C      -49.63860000     -33.31720000     -71.25350000
C      -48.68280000     -34.08860000     -71.93050000
C      -47.86180000     -34.95160000     -71.19690000
C      -47.94690000     -34.98140000     -69.78760000
C      -48.85080000     -34.13290000     -69.08170000
C      -49.74150000     -33.34270000     -69.79850000
H      -50.31360000     -32.71160000     -71.87360000
H      -47.15270000     -35.66930000     -71.57900000
H      -48.73210000     -34.11580000     -68.04500000
H      -50.54310000     -32.70840000     -69.33030000
C      -47.23290000     -35.98910000     -68.96180000
H      -46.67400000     -36.70320000     -69.59510000
H      -47.89880000     -36.53310000     -68.26980000
C      -48.44270000     -33.67870000     -73.36580000
H      -48.60480000     -34.48650000     -74.04520000
H      -49.08920000     -32.89800000     -73.70080000
S      -45.99560000     -35.15660000     -67.90360000
S      -46.65160000     -33.25240000     -73.52170000
C      -44.57260000     -35.10560000     -69.06090000
H      -43.72190000     -34.91730000     -68.40540000
H      -44.41010000     -36.00740000     -69.64690000
C      -46.52660000     -31.37740000     -73.26940000
H      -47.60010000     -31.00490000     -73.08090000
H      -46.22830000     -30.88720000     -74.19730000
C      -45.60440000     -31.16500000     -71.93630000
H      -45.86110000     -30.14010000     -71.70640000
H      -46.01880000     -31.84380000     -71.21070000
C      -44.68430000     -33.87330000     -69.94710000
H      -44.97320000     -33.04610000     -69.31360000
H      -45.60510000     -33.95160000     -70.61330000
C      -43.48190000     -33.56100000     -70.75030000
C      -42.29100000     -34.25220000     -70.65080000
C      -43.34640000     -32.49960000     -71.72510000
H      -42.17780000     -35.11380000     -69.96170000
C      -42.06100000     -32.56030000     -72.29520000
C      -44.19420000     -31.44880000     -72.21520000
C      -43.52800000     -30.68310000     -73.16600000
S      -41.00790000     -33.80930000     -71.70080000
S      -41.88620000     -31.19840000     -73.34620000
H      -44.04410000     -29.97820000     -73.82000000
