40
Properties=species:S:1:pos:R:3 #=T CELL(abcABC):=T 1.889726e+02=T 90.00000=T Traj:=T positionsangstrom=T Step:=T 0=T Bead:=T pbc="F F F"
C      -49.27080000     -32.80340000     -71.23270000
C      -48.54170000     -33.62900000     -72.14470000
C      -47.98350000     -34.76580000     -71.64160000
C      -48.12330000     -35.15120000     -70.32230000
C      -48.84850000     -34.36850000     -69.40570000
C      -49.33840000     -33.14780000     -69.90200000
H      -49.61610000     -31.83600000     -71.62800000
H      -47.38110000     -35.38030000     -72.31560000
H      -48.70490000     -34.63780000     -68.42170000
H      -49.78540000     -32.42260000     -69.19000000
C      -47.40030000     -36.39590000     -69.86220000
H      -46.76370000     -36.86490000     -70.66790000
H      -48.11210000     -37.18190000     -69.55750000
C      -48.26650000     -33.13630000     -73.55510000
H      -48.32070000     -33.98630000     -74.25510000
H      -49.03840000     -32.40300000     -73.82380000
S      -46.28940000     -35.99880000     -68.43250000
S      -46.57340000     -32.42950000     -73.66170000
C      -44.64190000     -35.62170000     -69.26110000
H      -43.94030000     -35.46880000     -68.45410000
H      -44.28240000     -36.43040000     -69.91300000
C      -46.52860000     -30.95320000     -72.54630000
H      -47.53310000     -30.83920000     -72.11060000
H      -46.17390000     -30.10810000     -73.14770000
C      -45.62180000     -31.24680000     -71.32430000
H      -45.57420000     -30.41760000     -70.60120000
H      -46.03870000     -32.14740000     -70.78970000
C      -44.76780000     -34.33390000     -69.95870000
H      -45.16960000     -33.57020000     -69.32420000
H      -45.48440000     -34.29910000     -70.72210000
C      -43.49970000     -33.83900000     -70.61120000
C      -42.31940000     -34.56990000     -70.63080000
C      -43.31460000     -32.58220000     -71.33910000
H      -42.12920000     -35.46540000     -70.11030000
C      -42.06230000     -32.47820000     -71.92870000
C      -44.16200000     -31.46940000     -71.70660000
C      -43.54770000     -30.62040000     -72.67070000
S      -41.06810000     -33.91890000     -71.66100000
S      -41.82900000     -31.01930000     -72.86080000
H      -44.00880000     -29.61480000     -72.93990000
