40
Properties=species:S:1:pos:R:3 #=T CELL(abcABC):=T 1.889726e+02=T 90.00000=T Traj:=T positionsangstrom=T Step:=T 0=T Bead:=T pbc="F F F"
C      -49.32530000     -32.49720000     -71.11010000
C      -48.60240000     -33.18270000     -72.04770000
C      -48.13460000     -34.51650000     -71.82000000
C      -48.26380000     -35.16210000     -70.57490000
C      -48.75330000     -34.31530000     -69.49730000
C      -49.35580000     -33.08370000     -69.77740000
H      -49.73000000     -31.51120000     -71.22930000
H      -47.80020000     -35.06140000     -72.72040000
H      -48.80110000     -34.71700000     -68.50990000
H      -49.88160000     -32.66000000     -68.94500000
C      -47.63600000     -36.49800000     -70.34440000
H      -47.21240000     -36.86230000     -71.30980000
H      -48.45270000     -37.22930000     -70.04570000
C      -48.38810000     -32.59680000     -73.44120000
H      -48.44290000     -33.39310000     -74.27350000
H      -49.16280000     -31.76550000     -73.63650000
S      -46.35320000     -36.57940000     -69.06280000
S      -46.70830000     -31.90390000     -73.60370000
C      -44.84330000     -36.08350000     -69.93310000
H      -44.05250000     -36.14010000     -69.12470000
H      -44.54930000     -36.78180000     -70.69840000
C      -46.41460000     -30.88650000     -72.08940000
H      -47.35170000     -30.51730000     -71.64610000
H      -45.99870000     -29.96960000     -72.49850000
C      -45.49920000     -31.52870000     -71.08750000
H      -45.56580000     -31.03380000     -70.14490000
H      -45.85050000     -32.50330000     -70.76490000
C      -44.84050000     -34.65580000     -70.54650000
H      -45.41270000     -34.00320000     -69.81710000
H      -45.32090000     -34.69990000     -71.52160000
C      -43.40080000     -34.06430000     -70.80030000
C      -42.28130000     -34.82780000     -70.79170000
C      -43.24780000     -32.77390000     -71.38000000
H      -42.11590000     -35.82310000     -70.57860000
C      -41.97000000     -32.55290000     -71.83370000
C      -44.06430000     -31.61820000     -71.49200000
C      -43.37120000     -30.54500000     -71.87810000
S      -40.90340000     -33.86650000     -71.50240000
S      -41.69080000     -30.87540000     -72.25180000
H      -43.84050000     -29.60660000     -71.93590000
