40
Properties=species:S:1:pos:R:3 #=T CELL(abcABC):=T 1.889726e+02=T 90.00000=T Traj:=T positionsangstrom=T Step:=T 0=T Bead:=T pbc="F F F"
C      -43.32560000     -30.00480000     -69.14670000
C      -43.13970000     -31.40630000     -69.27670000
C      -44.09090000     -32.23120000     -68.64100000
C      -45.21080000     -31.66970000     -68.06680000
C      -45.36510000     -30.29130000     -68.03420000
C      -44.38400000     -29.44020000     -68.49090000
H      -42.63530000     -29.21170000     -69.54360000
H      -43.90020000     -33.30340000     -68.81350000
H      -46.26790000     -29.83220000     -67.59810000
H      -44.34890000     -28.38440000     -68.21820000
C      -46.39070000     -32.50400000     -67.64290000
H      -46.80110000     -32.18730000     -66.72880000
H      -46.01540000     -33.57910000     -67.46830000
C      -41.85050000     -31.84410000     -70.01780000
H      -41.43000000     -30.93530000     -70.53560000
H      -41.13250000     -32.38070000     -69.36680000
S      -47.82070000     -32.44230000     -68.76130000
S      -42.28390000     -32.94980000     -71.35920000
C      -47.28390000     -33.72940000     -70.07410000
H      -46.22370000     -33.54990000     -70.21100000
H      -47.50480000     -34.78400000     -69.72490000
C      -43.37440000     -31.83670000     -72.46330000
H      -42.86900000     -31.64750000     -73.31570000
H      -43.58240000     -30.93140000     -71.87970000
C      -44.79720000     -32.46680000     -72.59510000
H      -45.19800000     -32.58830000     -71.59600000
H      -45.46000000     -31.76690000     -73.05400000
C      -47.95890000     -33.58100000     -71.41920000
H      -48.07310000     -32.52020000     -71.77790000
H      -49.08620000     -33.73650000     -71.32880000
C      -47.41450000     -34.53480000     -72.41850000
C      -48.16890000     -35.65630000     -72.76980000
C      -46.08160000     -34.64700000     -73.14910000
H      -49.22220000     -35.84170000     -72.37800000
C      -45.96180000     -35.88360000     -73.76490000
C      -44.89600000     -33.82680000     -73.33330000
C      -43.96750000     -34.36360000     -74.22300000
S      -47.43710000     -36.90190000     -73.77790000
S      -44.47340000     -35.95580000     -74.72670000
H      -43.00380000     -33.93600000     -74.33440000
