40
Properties=species:S:1:pos:R:3 #=T CELL(abcABC):=T 1.889726e+02=T 90.00000=T Traj:=T positionsangstrom=T Step:=T 0=T Bead:=T pbc="F F F"
C      -43.38320000     -29.93210000     -69.09340000
C      -43.21350000     -31.30180000     -69.28550000
C      -44.18420000     -32.15710000     -68.75540000
C      -45.30730000     -31.68180000     -68.10030000
C      -45.45540000     -30.32210000     -67.94690000
C      -44.51670000     -29.42510000     -68.46180000
H      -42.73380000     -29.17940000     -69.48690000
H      -44.14990000     -33.25870000     -68.83090000
H      -46.30580000     -29.80550000     -67.42060000
H      -44.76700000     -28.35680000     -68.55360000
C      -46.43700000     -32.57360000     -67.69300000
H      -46.87170000     -32.23610000     -66.69440000
H      -46.15020000     -33.62070000     -67.61090000
C      -41.88330000     -31.86550000     -69.83610000
H      -41.15240000     -31.13570000     -69.99570000
H      -41.46270000     -32.52020000     -69.05840000
S      -47.74380000     -32.34890000     -69.03390000
S      -42.14780000     -33.08860000     -71.30720000
C      -47.23690000     -33.68570000     -70.09270000
H      -46.13300000     -33.71730000     -70.03120000
H      -47.49590000     -34.65020000     -69.70000000
C      -43.24860000     -32.13680000     -72.40360000
H      -42.79400000     -32.06610000     -73.45670000
H      -43.26620000     -31.02790000     -72.16370000
C      -44.71410000     -32.53970000     -72.43220000
H      -45.11890000     -32.34820000     -71.41900000
H      -45.19780000     -31.79730000     -73.11340000
C      -47.68190000     -33.46040000     -71.51020000
H      -47.23180000     -32.59220000     -71.87460000
H      -48.76310000     -33.32520000     -71.58310000
C      -47.36410000     -34.63210000     -72.37250000
C      -48.23450000     -35.71360000     -72.68680000
C      -46.11290000     -34.74120000     -73.01070000
H      -49.27980000     -35.85270000     -72.43540000
C      -46.04750000     -35.85070000     -73.84770000
C      -44.94060000     -33.91030000     -73.09700000
C      -43.94250000     -34.42170000     -73.96040000
S      -47.53220000     -36.78810000     -73.93170000
S      -44.52890000     -35.85210000     -74.70960000
H      -42.97750000     -33.93820000     -74.29330000
