40
Properties=species:S:1:pos:R:3 #=T CELL(abcABC):=T 1.889726e+02=T 90.00000=T Traj:=T positionsangstrom=T Step:=T 0=T Bead:=T pbc="F F F"
C      -49.20860000     -32.67970000     -71.25330000
C      -48.37030000     -33.41440000     -72.13540000
C      -47.76040000     -34.60900000     -71.79050000
C      -47.96380000     -35.04560000     -70.45630000
C      -48.69450000     -34.27440000     -69.50670000
C      -49.35960000     -33.11640000     -69.93310000
H      -49.73530000     -31.76700000     -71.58760000
H      -47.15750000     -35.17520000     -72.45460000
H      -48.74650000     -34.76580000     -68.51910000
H      -49.92120000     -32.56860000     -69.13040000
C      -47.40730000     -36.38930000     -69.98920000
H      -46.80690000     -36.93240000     -70.71920000
H      -48.21910000     -37.06130000     -69.69430000
C      -48.31060000     -32.99280000     -73.54730000
H      -48.22570000     -33.87680000     -74.22300000
H      -49.24400000     -32.54530000     -74.00420000
S      -46.19950000     -36.32850000     -68.54480000
S      -46.78000000     -31.96130000     -74.03240000
C      -44.60560000     -35.87440000     -69.32290000
H      -43.97110000     -35.69540000     -68.46600000
H      -44.11920000     -36.70670000     -69.93380000
C      -46.49120000     -30.85870000     -72.58380000
H      -47.47740000     -30.57720000     -72.31790000
H      -45.92100000     -29.99720000     -72.89020000
C      -45.77100000     -31.55360000     -71.42910000
H      -46.05280000     -31.08430000     -70.50490000
H      -46.04750000     -32.58550000     -71.34910000
C      -44.80010000     -34.65540000     -70.22550000
H      -45.49860000     -33.94990000     -69.76730000
H      -45.25160000     -35.00030000     -71.20260000
C      -43.48090000     -34.04810000     -70.70930000
C      -42.30470000     -34.78540000     -70.81140000
C      -43.34900000     -32.70990000     -71.25030000
H      -42.21040000     -35.89460000     -70.58490000
C      -42.06890000     -32.47230000     -71.73690000
C      -44.27080000     -31.60410000     -71.49930000
C      -43.57860000     -30.47520000     -71.86770000
S      -41.07860000     -33.93120000     -71.63330000
S      -41.85050000     -30.89140000     -72.34690000
H      -43.99880000     -29.65780000     -72.43630000
