40
Properties=species:S:1:pos:R:3 #=T CELL(abcABC):=T 1.889726e+02=T 90.00000=T Traj:=T positionsangstrom=T Step:=T 0=T Bead:=T pbc="F F F"
C      -49.10460000     -32.71200000     -71.19660000
C      -48.53340000     -33.56820000     -72.18710000
C      -47.95670000     -34.78170000     -71.80040000
C      -48.09650000     -35.23130000     -70.47710000
C      -48.68060000     -34.38230000     -69.49990000
C      -49.18580000     -33.11170000     -69.81260000
H      -49.53070000     -31.79400000     -71.58080000
H      -47.42110000     -35.48690000     -72.47510000
H      -48.69130000     -34.74750000     -68.49680000
H      -49.66590000     -32.49740000     -69.10700000
C      -47.39910000     -36.48810000     -69.87010000
H      -46.77290000     -37.01900000     -70.60350000
H      -48.16780000     -37.14830000     -69.50620000
C      -48.27290000     -33.09490000     -73.61010000
H      -48.20640000     -33.92720000     -74.30980000
H      -49.03610000     -32.39830000     -73.83890000
S      -46.36360000     -36.08420000     -68.33740000
S      -46.68250000     -32.12800000     -73.89800000
C      -44.78970000     -35.60230000     -69.17140000
H      -44.02700000     -35.40730000     -68.34660000
H      -44.45260000     -36.52830000     -69.65330000
C      -46.58360000     -31.03030000     -72.39050000
H      -47.59690000     -30.75880000     -72.17860000
H      -46.21120000     -30.07360000     -72.80920000
C      -45.64910000     -31.53150000     -71.30600000
H      -45.79020000     -30.77190000     -70.51190000
H      -46.04970000     -32.41290000     -70.78810000
C      -44.79110000     -34.41840000     -70.12720000
H      -45.04820000     -33.48530000     -69.50440000
H      -45.64950000     -34.58740000     -70.75740000
C      -43.52920000     -34.06760000     -70.91430000
C      -42.34510000     -34.76760000     -70.91510000
C      -43.35610000     -32.75000000     -71.48760000
H      -42.23410000     -35.69760000     -70.44670000
C      -42.07550000     -32.49630000     -71.96240000
C      -44.20650000     -31.61590000     -71.67200000
C      -43.47160000     -30.52280000     -72.24000000
S      -40.97750000     -33.81310000     -71.59670000
S      -41.80520000     -30.90630000     -72.57540000
H      -43.83290000     -29.53380000     -72.58100000
