40
Properties=species:S:1:pos:R:3 #=T CELL(abcABC):=T 1.889726e+02=T 90.00000=T Traj:=T positionsangstrom=T Step:=T 0=T Bead:=T pbc="F F F"
C      -49.28860000     -32.56360000     -71.20160000
C      -48.45840000     -33.26240000     -72.07840000
C      -47.84020000     -34.45920000     -71.74770000
C      -48.02420000     -35.02270000     -70.44450000
C      -48.77910000     -34.28910000     -69.49330000
C      -49.43520000     -33.08240000     -69.91520000
H      -49.77230000     -31.65900000     -71.56600000
H      -47.21880000     -35.07290000     -72.46310000
H      -48.90110000     -34.58910000     -68.43770000
H      -50.04100000     -32.51710000     -69.14480000
C      -47.40560000     -36.39270000     -70.22610000
H      -46.84560000     -36.78320000     -71.08970000
H      -48.19220000     -37.05120000     -69.99350000
C      -48.37380000     -32.64930000     -73.49620000
H      -48.51500000     -33.41090000     -74.25860000
H      -49.06050000     -31.84670000     -73.53730000
S      -46.17500000     -36.59900000     -68.72100000
S      -46.77690000     -31.92870000     -73.88190000
C      -44.55730000     -36.04370000     -69.56440000
H      -43.84360000     -35.92650000     -68.78510000
H      -44.21910000     -36.79150000     -70.29560000
C      -46.61670000     -30.86720000     -72.37430000
H      -47.61440000     -30.60100000     -71.92950000
H      -46.14320000     -29.89620000     -72.67240000
C      -45.67530000     -31.47410000     -71.29110000
H      -45.75920000     -30.87460000     -70.32300000
H      -45.95920000     -32.53340000     -71.17180000
C      -44.74080000     -34.65460000     -70.22260000
H      -45.16410000     -33.92830000     -69.51420000
H      -45.59040000     -34.69000000     -70.88020000
C      -43.48540000     -34.16450000     -70.91670000
C      -42.31780000     -34.87110000     -71.04180000
C      -43.37030000     -32.78690000     -71.40610000
H      -42.17160000     -35.90510000     -70.76160000
C      -42.06390000     -32.49870000     -71.77410000
C      -44.27410000     -31.67140000     -71.73650000
C      -43.51330000     -30.60010000     -72.03490000
S      -40.99100000     -33.87460000     -71.47650000
S      -41.79630000     -30.85360000     -72.16460000
H      -43.92120000     -29.64280000     -71.99980000
