40
Properties=species:S:1:pos:R:3 #=T CELL(abcABC):=T 1.889726e+02=T 90.00000=T Traj:=T positionsangstrom=T Step:=T 0=T Bead:=T pbc="F F F"
C      -43.99750000     -31.18160000     -68.35120000
C      -45.37280000     -31.50260000     -68.35540000
C      -46.21010000     -30.99880000     -69.38660000
C      -45.68770000     -30.37560000     -70.45670000
C      -44.37270000     -30.01490000     -70.40800000
C      -43.51840000     -30.47410000     -69.44340000
H      -43.38260000     -31.62250000     -67.56720000
H      -47.30140000     -31.33230000     -69.45220000
H      -43.84810000     -29.56710000     -71.22040000
H      -42.45750000     -30.23880000     -69.41070000
C      -46.53570000     -29.84050000     -71.62160000
H      -45.93160000     -29.75700000     -72.54470000
H      -46.96310000     -28.85660000     -71.32120000
C      -46.05680000     -32.31330000     -67.34020000
H      -45.41900000     -32.48770000     -66.53960000
H      -46.97980000     -31.94450000     -67.03140000
S      -47.99000000     -30.81900000     -71.98330000
S      -46.43830000     -34.01440000     -68.02680000
C      -47.22050000     -32.00150000     -73.13890000
H      -47.97930000     -32.50800000     -73.62240000
H      -46.60660000     -31.45840000     -73.88740000
C      -45.11310000     -34.37410000     -69.27360000
H      -44.21560000     -34.85950000     -68.73260000
H      -44.82660000     -33.49430000     -69.88870000
C      -45.69890000     -35.48580000     -70.22850000
H      -45.81220000     -36.35570000     -69.58880000
H      -46.64840000     -35.07560000     -70.55590000
C      -46.30760000     -33.01090000     -72.32970000
H      -47.04440000     -33.57360000     -71.65140000
H      -45.56440000     -32.55420000     -71.65300000
C      -45.48900000     -33.92830000     -73.16930000
C      -45.18140000     -33.74050000     -74.48850000
C      -44.85760000     -35.16820000     -72.66440000
H      -45.36880000     -32.92390000     -75.12310000
C      -43.98860000     -35.76910000     -73.55550000
C      -44.78260000     -35.83730000     -71.36140000
C      -43.90060000     -36.87670000     -71.32390000
S      -43.99320000     -34.97660000     -75.14520000
S      -43.12930000     -37.17060000     -72.88340000
H      -43.67160000     -37.42490000     -70.42440000
