40
Properties=species:S:1:pos:R:3 #=T CELL(abcABC):=T 1.889726e+02=T 90.00000=T Traj:=T positionsangstrom=T Step:=T 0=T Bead:=T pbc="F F F"
C      -49.34620000     -32.37110000     -70.80960000
C      -48.49640000     -32.54400000     -71.94820000
C      -48.00540000     -33.84290000     -72.20810000
C      -48.20050000     -34.93790000     -71.34990000
C      -48.85590000     -34.75570000     -70.14300000
C      -49.48090000     -33.46140000     -69.88900000
H      -49.90250000     -31.39650000     -70.55720000
H      -47.50270000     -34.05560000     -73.13060000
H      -48.88630000     -35.54290000     -69.33920000
H      -50.12870000     -33.29960000     -69.03430000
C      -47.77280000     -36.35820000     -71.67680000
H      -47.25050000     -36.42660000     -72.62360000
H      -48.64980000     -37.11330000     -71.76860000
C      -48.08390000     -31.43670000     -72.90790000
H      -48.16480000     -31.78770000     -73.97570000
H      -48.79010000     -30.54410000     -72.90610000
S      -46.56500000     -37.22580000     -70.39870000
S      -46.33830000     -30.68980000     -72.92060000
C      -44.96520000     -36.53300000     -70.88990000
H      -44.22280000     -37.07550000     -70.28840000
H      -44.77350000     -36.66880000     -71.93820000
C      -46.09850000     -30.48840000     -71.10920000
H      -47.07450000     -30.22190000     -70.64440000
H      -45.45080000     -29.64600000     -70.97690000
C      -45.57420000     -31.85550000     -70.49810000
H      -45.86070000     -31.90890000     -69.41050000
H      -46.00780000     -32.66510000     -71.01280000
C      -44.88650000     -35.04410000     -70.69180000
H      -45.00050000     -34.79320000     -69.63520000
H      -45.64990000     -34.56170000     -71.31640000
C      -43.58670000     -34.44980000     -71.12150000
C      -42.54180000     -35.17320000     -71.66250000
C      -43.27890000     -33.05880000     -70.98500000
H      -42.57030000     -36.19900000     -72.12770000
C      -41.92800000     -32.72280000     -71.34810000
C      -44.08260000     -31.93300000     -70.65510000
C      -43.28830000     -30.80780000     -70.65140000
S      -41.11000000     -34.16180000     -71.91650000
S      -41.61330000     -31.02150000     -71.08900000
H      -43.62310000     -29.79700000     -70.57740000
