40
Properties=species:S:1:pos:R:3 #=T CELL(abcABC):=T 1.889726e+02=T 90.00000=T Traj:=T positionsangstrom=T Step:=T 0=T Bead:=T pbc="F F F"
C      -43.31890000     -29.64440000     -69.89290000
C      -42.94920000     -30.97720000     -69.92480000
C      -43.69510000     -31.92650000     -69.22560000
C      -44.79200000     -31.58750000     -68.38510000
C      -45.14480000     -30.20530000     -68.34790000
C      -44.34900000     -29.23560000     -69.08590000
H      -42.83310000     -29.00250000     -70.57730000
H      -43.28820000     -32.91140000     -69.21850000
H      -45.96440000     -30.00400000     -67.64630000
H      -44.50040000     -28.21250000     -68.88780000
C      -45.44110000     -32.62730000     -67.46200000
H      -45.65160000     -32.04510000     -66.52020000
H      -44.78630000     -33.44480000     -67.31880000
C      -41.85930000     -31.37190000     -70.77120000
H      -41.30350000     -30.46010000     -71.00060000
H      -41.15670000     -32.05900000     -70.28450000
S      -47.15110000     -33.24090000     -68.05910000
S      -42.33190000     -32.41280000     -72.25780000
C      -46.88930000     -34.23080000     -69.63580000
H      -45.81610000     -34.21030000     -69.91840000
H      -46.91050000     -35.25080000     -69.33440000
C      -43.91630000     -31.59660000     -72.88070000
H      -43.83240000     -31.51200000     -73.96050000
H      -44.06540000     -30.58290000     -72.38770000
C      -45.21840000     -32.48430000     -72.46020000
H      -45.28450000     -32.62020000     -71.34040000
H      -46.20370000     -31.89510000     -72.60050000
C      -47.83110000     -33.80080000     -70.84330000
H      -47.61480000     -32.76090000     -71.11790000
H      -48.88090000     -33.75740000     -70.47710000
C      -47.62250000     -34.78330000     -71.97420000
C      -48.27210000     -36.00250000     -72.08270000
C      -46.45660000     -34.76110000     -72.87960000
H      -49.26430000     -36.22250000     -71.73980000
C      -46.34730000     -35.88960000     -73.65750000
C      -45.40590000     -33.72200000     -73.10280000
C      -44.47290000     -34.26200000     -73.97860000
S      -47.62320000     -37.01280000     -73.35460000
S      -44.85050000     -35.89150000     -74.53240000
H      -43.44810000     -34.00180000     -74.27650000
