40
Properties=species:S:1:pos:R:3 #=T CELL(abcABC):=T 1.889726e+02=T 90.00000=T Traj:=T positionsangstrom=T Step:=T 0=T Bead:=T pbc="F F F"
C      -48.95130000     -32.36340000     -70.81420000
C      -48.19640000     -32.59330000     -71.96920000
C      -47.76430000     -33.87980000     -72.25010000
C      -48.22850000     -34.99340000     -71.45950000
C      -49.08240000     -34.75380000     -70.34280000
C      -49.35810000     -33.42350000     -69.96300000
H      -49.27790000     -31.27310000     -70.63650000
H      -47.12680000     -34.07650000     -73.13370000
H      -49.58140000     -35.65150000     -69.83020000
H      -49.98930000     -33.28880000     -69.10880000
C      -47.84070000     -36.36130000     -71.94810000
H      -47.27110000     -36.27960000     -72.87880000
H      -48.76680000     -36.90080000     -72.31240000
C      -48.10350000     -31.44820000     -72.86750000
H      -48.22850000     -31.89520000     -73.80360000
H      -48.83040000     -30.71810000     -72.65180000
S      -46.82190000     -37.26720000     -70.71690000
S      -46.48760000     -30.67740000     -72.76010000
C      -45.06490000     -36.63120000     -71.08910000
H      -44.40860000     -37.28580000     -70.47000000
H      -44.83160000     -36.84540000     -72.15500000
C      -46.27610000     -30.56580000     -70.93860000
H      -47.25120000     -30.53350000     -70.48230000
H      -45.76840000     -29.53710000     -70.71260000
C      -45.45120000     -31.64960000     -70.14900000
H      -45.43880000     -31.34700000     -69.09580000
H      -45.96670000     -32.58580000     -70.21790000
C      -44.90150000     -35.17430000     -70.66700000
H      -45.04760000     -35.06990000     -69.57650000
H      -45.82160000     -34.70100000     -70.92170000
C      -43.60330000     -34.46220000     -71.08670000
C      -42.48090000     -35.17380000     -71.49850000
C      -43.37170000     -33.01280000     -71.03550000
H      -42.47080000     -36.23760000     -72.00300000
C      -42.03670000     -32.70210000     -71.34760000
C      -44.00690000     -31.78200000     -70.53720000
C      -43.12400000     -30.73190000     -70.49220000
S      -41.13520000     -34.05730000     -71.88430000
S      -41.42350000     -31.11520000     -71.03590000
H      -43.25430000     -29.75220000     -70.03700000
