40
Properties=species:S:1:pos:R:3 #=T CELL(abcABC):=T 1.889726e+02=T 90.00000=T Traj:=T positionsangstrom=T Step:=T 0=T Bead:=T pbc="F F F"
C      -43.31480000     -29.73790000     -69.95470000
C      -42.95250000     -31.12450000     -69.99260000
C      -43.67290000     -32.03910000     -69.23050000
C      -44.72820000     -31.69720000     -68.42990000
C      -45.13110000     -30.35200000     -68.45060000
C      -44.43800000     -29.37380000     -69.19030000
H      -42.65480000     -29.01540000     -70.49010000
H      -43.29710000     -33.06840000     -69.28890000
H      -46.02330000     -30.15790000     -67.90460000
H      -44.78460000     -28.30380000     -69.11750000
C      -45.42680000     -32.69040000     -67.53350000
H      -45.49490000     -32.54800000     -66.50190000
H      -44.95250000     -33.69940000     -67.67150000
C      -41.78220000     -31.49380000     -70.81800000
H      -41.28730000     -30.49540000     -71.10510000
H      -41.04730000     -32.23590000     -70.43840000
S      -47.19750000     -32.95200000     -68.04520000
S      -42.30060000     -32.37080000     -72.45820000
C      -46.77590000     -34.04320000     -69.53480000
H      -45.70980000     -33.73460000     -69.82950000
H      -46.91300000     -35.12190000     -69.17690000
C      -44.00830000     -31.65210000     -72.83480000
H      -44.14820000     -31.32640000     -73.89600000
H      -44.10690000     -30.71490000     -72.26230000
C      -45.14740000     -32.56320000     -72.36270000
H      -44.99750000     -32.70650000     -71.35510000
H      -46.03970000     -32.12600000     -72.48760000
C      -47.77310000     -33.85240000     -70.66410000
H      -47.74260000     -32.80660000     -70.93360000
H      -48.75430000     -34.08720000     -70.30220000
C      -47.50280000     -34.80610000     -71.79580000
C      -48.24570000     -35.97650000     -71.90290000
C      -46.39620000     -34.72690000     -72.70440000
H      -49.18030000     -36.18610000     -71.34350000
C      -46.35460000     -35.82250000     -73.55070000
C      -45.33170000     -33.82060000     -73.02500000
C      -44.48400000     -34.34590000     -74.00190000
S      -47.60440000     -36.96080000     -73.26140000
S      -45.05170000     -35.85150000     -74.67160000
H      -43.52300000     -34.04750000     -74.41490000
