40
Properties=species:S:1:pos:R:3 #=T CELL(abcABC):=T 1.889726e+02=T 90.00000=T Traj:=T positionsangstrom=T Step:=T 0=T Bead:=T pbc="F F F"
C      -43.33670000     -29.87550000     -70.11810000
C      -42.88480000     -31.22960000     -70.00970000
C      -43.49820000     -32.06130000     -69.10770000
C      -44.61540000     -31.67060000     -68.29520000
C      -44.97520000     -30.34420000     -68.39270000
C      -44.40190000     -29.45600000     -69.27490000
H      -42.68330000     -29.24400000     -70.81190000
H      -43.32210000     -33.10590000     -69.12590000
H      -45.74630000     -29.98080000     -67.75560000
H      -44.99010000     -28.51830000     -69.45660000
C      -45.43620000     -32.64630000     -67.47810000
H      -45.60520000     -32.23750000     -66.43180000
H      -45.01510000     -33.63980000     -67.40260000
C      -41.71750000     -31.67240000     -70.85470000
H      -40.94640000     -30.92740000     -70.99190000
H      -41.18980000     -32.48690000     -70.45430000
S      -47.15050000     -32.73010000     -68.15120000
S      -42.25000000     -32.29460000     -72.61690000
C      -46.95460000     -33.99160000     -69.42080000
H      -45.94600000     -33.97700000     -69.78760000
H      -47.12730000     -34.93260000     -69.02160000
C      -43.99240000     -31.67850000     -72.80540000
H      -44.08410000     -31.58810000     -73.87930000
H      -43.95070000     -30.68520000     -72.35470000
C      -45.09680000     -32.63300000     -72.22470000
H      -44.92540000     -32.86670000     -71.12180000
H      -46.08020000     -32.03590000     -72.23460000
C      -47.75350000     -33.79220000     -70.63750000
H      -47.50590000     -32.86580000     -71.03410000
H      -48.88430000     -33.71400000     -70.42070000
C      -47.47160000     -34.86860000     -71.69230000
C      -48.31540000     -35.95510000     -71.88150000
C      -46.32440000     -34.85570000     -72.60920000
H      -49.11410000     -36.37030000     -71.26390000
C      -46.33460000     -35.95930000     -73.50250000
C      -45.31580000     -33.89780000     -72.97470000
C      -44.60130000     -34.26470000     -74.09790000
S      -47.74290000     -37.01030000     -73.15840000
S      -45.16300000     -35.81040000     -74.74410000
H      -43.94280000     -33.66380000     -74.66570000
