40
Properties=species:S:1:pos:R:3 #=T CELL(abcABC):=T 1.889726e+02=T 90.00000=T Traj:=T positionsangstrom=T Step:=T 0=T Bead:=T pbc="F F F"
C      -43.17030000     -36.10620000     -73.28100000
C      -42.91580000     -35.75080000     -71.94000000
C      -42.56420000     -34.43300000     -71.69550000
C      -42.35600000     -33.49770000     -72.73700000
C      -42.55150000     -33.89540000     -74.02620000
C      -42.97050000     -35.21130000     -74.27190000
H      -43.48380000     -37.14870000     -73.41240000
H      -42.33180000     -34.15080000     -70.70020000
H      -42.33040000     -33.20210000     -74.81170000
H      -43.12890000     -35.54010000     -75.35460000
C      -41.92670000     -32.12660000     -72.35590000
H      -40.81900000     -31.96640000     -72.58290000
H      -41.96830000     -31.89660000     -71.23410000
C      -42.76810000     -36.74580000     -70.80520000
H      -43.04380000     -37.62370000     -71.26150000
H      -41.67460000     -36.90220000     -70.70460000
S      -43.03920000     -30.76600000     -73.07550000
S      -43.80090000     -36.34650000     -69.28760000
C      -44.61570000     -30.96160000     -72.08160000
H      -44.24100000     -31.07640000     -71.04490000
H      -45.06700000     -29.93550000     -72.06350000
C      -45.21130000     -35.44800000     -70.01240000
H      -46.15530000     -35.94590000     -69.86900000
H      -45.15480000     -35.44060000     -71.11920000
C      -45.24480000     -33.98930000     -69.50290000
H      -44.82100000     -33.82640000     -68.58750000
H      -44.60330000     -33.41450000     -70.24050000
C      -45.44770000     -32.14820000     -72.53610000
H      -44.96400000     -33.09000000     -72.26070000
H      -45.57140000     -32.18500000     -73.58820000
C      -46.81750000     -32.12570000     -71.93730000
C      -47.83470000     -31.53000000     -72.64590000
C      -47.19440000     -32.55660000     -70.62800000
H      -47.69160000     -30.90940000     -73.54170000
C      -48.56080000     -32.28550000     -70.34300000
C      -46.59360000     -33.40940000     -69.55310000
C      -47.54910000     -33.67050000     -68.61730000
S      -49.35330000     -31.38260000     -71.67260000
S      -49.16320000     -32.91240000     -68.85350000
H      -47.21130000     -34.19570000     -67.78790000
