40
Properties=species:S:1:pos:R:3 #=T CELL(abcABC):=T 1.889726e+02=T 90.00000=T Traj:=T positionsangstrom=T Step:=T 0=T Bead:=T pbc="F F F"
C      -45.13560000     -30.66320000     -73.69940000
C      -44.92900000     -31.90450000     -74.37520000
C      -43.84610000     -32.66200000     -73.99630000
C      -42.90170000     -32.23360000     -73.04510000
C      -43.18480000     -31.12490000     -72.25170000
C      -44.34600000     -30.37250000     -72.56920000
H      -45.83610000     -29.89360000     -73.95300000
H      -43.66550000     -33.53510000     -74.54200000
H      -42.52820000     -30.83360000     -71.37400000
H      -44.47190000     -29.46900000     -71.98930000
C      -41.64360000     -33.08330000     -72.72620000
H      -40.91230000     -32.57450000     -72.16660000
H      -41.03960000     -33.28540000     -73.62340000
C      -45.91620000     -32.39850000     -75.38040000
H      -46.59650000     -31.62140000     -75.79430000
H      -45.51180000     -32.95390000     -76.16110000
S      -42.18210000     -34.72710000     -72.12710000
S      -47.13310000     -33.66570000     -74.77190000
C      -43.33050000     -34.29910000     -70.66170000
H      -42.67160000     -33.82030000     -69.80920000
H      -44.00860000     -33.48200000     -71.07780000
C      -47.44030000     -33.26720000     -73.01500000
H      -48.56610000     -33.34460000     -72.80660000
H      -47.29270000     -32.18780000     -72.73800000
C      -46.64510000     -34.03000000     -72.04100000
H      -46.72770000     -35.07290000     -72.25160000
H      -45.61540000     -33.83880000     -72.15710000
C      -44.08550000     -35.57870000     -70.33750000
H      -43.42610000     -36.28830000     -69.80420000
H      -44.48490000     -36.06430000     -71.20890000
C      -45.16910000     -35.13950000     -69.28820000
C      -44.86450000     -35.41910000     -67.99500000
C      -46.16470000     -34.13040000     -69.45530000
H      -44.19540000     -36.16210000     -67.59050000
C      -46.65880000     -33.63760000     -68.26860000
C      -46.93100000     -33.66470000     -70.57110000
C      -48.05900000     -32.97500000     -70.23050000
S      -45.74980000     -34.27410000     -66.85130000
S      -48.05750000     -32.59080000     -68.47970000
H      -48.69560000     -32.44770000     -70.92600000
