40
Properties=species:S:1:pos:R:3 #=T CELL(abcABC):=T 1.889726e+02=T 90.00000=T Traj:=T positionsangstrom=T Step:=T 0=T Bead:=T pbc="F F F"
C      -45.26850000     -31.06620000     -73.98890000
C      -45.32640000     -32.43620000     -74.42840000
C      -44.21360000     -33.28700000     -74.13620000
C      -42.99520000     -32.78500000     -73.72590000
C      -43.05190000     -31.43920000     -73.25910000
C      -44.14210000     -30.59360000     -73.31660000
H      -46.17770000     -30.49690000     -74.01550000
H      -44.30100000     -34.32680000     -74.27640000
H      -42.12680000     -30.93810000     -72.82450000
H      -44.04680000     -29.52370000     -73.02310000
C      -41.84850000     -33.73170000     -73.57770000
H      -40.96440000     -33.14680000     -73.27570000
H      -41.66860000     -34.20460000     -74.54380000
C      -46.56110000     -32.83090000     -75.27640000
H      -47.22650000     -31.93940000     -75.32830000
H      -46.42700000     -33.10620000     -76.26160000
S      -42.26700000     -35.04660000     -72.40770000
S      -47.54600000     -34.25870000     -74.45790000
C      -42.95580000     -34.22090000     -70.80250000
H      -42.14890000     -33.87090000     -70.16730000
H      -43.49260000     -33.38530000     -71.15270000
C      -47.76540000     -33.56990000     -72.69470000
H      -48.80000000     -33.82690000     -72.48500000
H      -47.69830000     -32.48040000     -72.64870000
C      -46.75150000     -34.22670000     -71.72740000
H      -46.79320000     -35.36430000     -71.70250000
H      -45.78330000     -33.94240000     -72.15160000
C      -43.89630000     -35.15540000     -70.01360000
H      -43.26910000     -35.89110000     -69.50620000
H      -44.61350000     -35.53910000     -70.71000000
C      -44.70840000     -34.36780000     -68.96380000
C      -44.24550000     -34.12780000     -67.68810000
C      -45.99900000     -33.78450000     -69.20510000
H      -43.19680000     -34.39020000     -67.39150000
C      -46.37190000     -33.03500000     -68.08840000
C      -47.05980000     -33.67830000     -70.23790000
C      -48.16420000     -33.09910000     -69.80960000
S      -45.17420000     -32.95300000     -66.81030000
S      -48.05860000     -32.60010000     -68.10990000
H      -49.07660000     -33.05550000     -70.33710000
