40
Properties=species:S:1:pos:R:3 #=T CELL(abcABC):=T 1.889726e+02=T 90.00000=T Traj:=T positionsangstrom=T Step:=T 0=T Bead:=T pbc="F F F"
C      -45.61870000     -31.04800000     -73.45540000
C      -45.27100000     -32.09650000     -74.32590000
C      -43.97120000     -32.63360000     -74.30820000
C      -43.00960000     -32.17820000     -73.35910000
C      -43.42070000     -31.13150000     -72.46920000
C      -44.67910000     -30.54540000     -72.52430000
H      -46.62330000     -30.66830000     -73.27270000
H      -43.85530000     -33.62770000     -74.88440000
H      -42.65770000     -30.63720000     -71.85760000
H      -44.84880000     -29.71950000     -71.82400000
C      -41.76020000     -32.95800000     -73.13450000
H      -41.16880000     -32.37480000     -72.43370000
H      -41.33300000     -33.30840000     -74.06560000
C      -46.35760000     -32.58140000     -75.28370000
H      -47.06790000     -31.75210000     -75.44220000
H      -45.94120000     -32.91560000     -76.29330000
S      -42.07370000     -34.61380000     -72.26590000
S      -47.19660000     -34.11230000     -74.71280000
C      -42.94420000     -34.11820000     -70.69420000
H      -42.19800000     -33.98740000     -69.92340000
H      -43.53550000     -33.18570000     -70.88670000
C      -47.56480000     -33.55300000     -73.00030000
H      -48.58040000     -33.91360000     -72.63040000
H      -47.55980000     -32.44870000     -72.95430000
C      -46.46260000     -33.98140000     -71.99560000
H      -46.39400000     -35.05420000     -71.89250000
H      -45.47710000     -33.59510000     -72.37920000
C      -43.87690000     -35.28160000     -70.18270000
H      -43.27850000     -36.14600000     -69.89330000
H      -44.54850000     -35.68490000     -70.94760000
C      -44.73930000     -34.74290000     -69.11580000
C      -44.57740000     -34.98380000     -67.76140000
C      -45.92940000     -33.93110000     -69.38090000
H      -43.75060000     -35.46860000     -67.25610000
C      -46.52090000     -33.42710000     -68.18500000
C      -46.70340000     -33.56590000     -70.56540000
C      -47.81890000     -32.85150000     -70.18730000
S      -45.86170000     -34.33420000     -66.77760000
S      -47.96130000     -32.55130000     -68.47680000
H      -48.66410000     -32.74320000     -70.78000000
