40
Properties=species:S:1:pos:R:3 #=T CELL(abcABC):=T 1.889726e+02=T 90.00000=T Traj:=T positionsangstrom=T Step:=T 0=T Bead:=T pbc="F F F"
C      -43.70200000     -31.18550000     -71.91810000
C      -44.05610000     -30.74290000     -70.64950000
C      -45.41280000     -30.52010000     -70.39720000
C      -46.35150000     -30.83940000     -71.39650000
C      -45.91060000     -31.37240000     -72.60210000
C      -44.59690000     -31.57410000     -72.89620000
H      -42.65870000     -31.47930000     -72.02290000
H      -45.73370000     -30.26060000     -69.37810000
H      -46.59330000     -31.85530000     -73.32630000
H      -44.18080000     -32.06400000     -73.77170000
C      -47.85000000     -30.60260000     -71.21730000
H      -48.27270000     -29.99220000     -72.04610000
H      -48.02480000     -30.05610000     -70.24820000
C      -42.94940000     -30.83910000     -69.57930000
H      -41.93870000     -30.72850000     -70.01170000
H      -43.15940000     -30.00820000     -68.81790000
S      -48.73460000     -32.26430000     -71.37120000
S      -42.88890000     -32.53730000     -68.87150000
C      -47.96430000     -33.37640000     -70.06890000
H      -46.96750000     -32.87580000     -69.90740000
H      -48.66990000     -33.30540000     -69.16040000
C      -44.55690000     -33.28670000     -68.76970000
H      -45.24040000     -32.74580000     -69.46230000
H      -45.05540000     -33.18300000     -67.77840000
C      -44.54510000     -34.78250000     -69.12040000
H      -43.85110000     -35.30580000     -68.45230000
H      -45.56870000     -35.20720000     -68.88170000
C      -47.77100000     -34.78890000     -70.55470000
H      -48.71530000     -35.18750000     -70.88520000
H      -47.42240000     -35.39110000     -69.63330000
C      -46.75290000     -34.93600000     -71.66890000
C      -47.21180000     -35.18220000     -72.93910000
C      -45.32350000     -35.07660000     -71.58640000
H      -48.25280000     -35.18250000     -73.09730000
C      -44.71590000     -35.45900000     -72.78820000
C      -44.22780000     -34.98440000     -70.57840000
C      -42.97360000     -35.24740000     -71.04710000
S      -45.90410000     -35.72180000     -74.04750000
S      -42.98410000     -35.61450000     -72.75650000
H      -42.02490000     -35.34380000     -70.55870000
