40
Properties=species:S:1:pos:R:3 #=T CELL(abcABC):=T 1.889726e+02=T 90.00000=T Traj:=T positionsangstrom=T Step:=T 0=T Bead:=T pbc="F F F"
C      -41.67050000     -31.99080000     -73.01230000
C      -42.53510000     -33.06150000     -72.54470000
C      -42.69680000     -33.16560000     -71.11180000
C      -42.07550000     -32.21800000     -70.22930000
C      -41.29750000     -31.17120000     -70.75470000
C      -41.08350000     -31.08980000     -72.15460000
H      -41.53740000     -31.84840000     -74.03900000
H      -43.22540000     -34.02130000     -70.74790000
H      -40.84190000     -30.38660000     -70.10860000
H      -40.43740000     -30.37010000     -72.51050000
C      -42.14290000     -32.30410000     -68.76550000
H      -41.42510000     -31.56310000     -68.35710000
H      -42.07140000     -33.22470000     -68.25490000
C      -43.31600000     -33.93370000     -73.47480000
H      -42.77190000     -34.31260000     -74.33800000
H      -43.85030000     -34.62110000     -72.91150000
S      -43.84920000     -31.65490000     -68.08730000
S      -44.50770000     -32.81940000     -74.44150000
C      -45.00720000     -33.12260000     -68.28630000
H      -44.41920000     -34.01620000     -68.48670000
H      -45.56100000     -33.30300000     -67.41740000
C      -45.41770000     -31.88330000     -73.18880000
H      -45.23410000     -30.79260000     -73.27540000
H      -44.87740000     -32.12700000     -72.32380000
C      -46.88800000     -32.08180000     -73.04390000
H      -47.16530000     -31.39330000     -72.27390000
H      -47.33400000     -31.84190000     -74.04830000
C      -45.96210000     -32.79450000     -69.43450000
H      -45.28820000     -32.58220000     -70.29080000
H      -46.53910000     -31.89520000     -69.16820000
C      -46.89790000     -33.93550000     -69.87480000
C      -47.45590000     -34.83530000     -68.97990000
C      -47.36750000     -34.10050000     -71.23320000
H      -47.23430000     -34.88450000     -67.90830000
C      -48.21240000     -35.23330000     -71.31860000
C      -47.34490000     -33.50200000     -72.67750000
C      -48.03880000     -34.25810000     -73.52280000
S      -48.50010000     -36.03590000     -69.75570000
S      -48.71380000     -35.76100000     -72.90010000
H      -48.14850000     -34.11400000     -74.57950000
