40
Properties=species:S:1:pos:R:3 #=T CELL(abcABC):=T 1.889726e+02=T 90.00000=T Traj:=T positionsangstrom=T Step:=T 0=T Bead:=T pbc="F F F"
C      -43.34130000     -32.11680000     -72.09520000
C      -44.04580000     -31.48020000     -71.00680000
C      -45.35530000     -31.06930000     -71.12330000
C      -46.04300000     -31.28710000     -72.34660000
C      -45.35620000     -31.93230000     -73.37780000
C      -43.99830000     -32.26420000     -73.28630000
H      -42.27470000     -32.37970000     -71.96790000
H      -45.60650000     -30.36930000     -70.37540000
H      -45.89400000     -32.05850000     -74.31440000
H      -43.50970000     -32.72570000     -74.14090000
C      -47.45210000     -30.80530000     -72.36590000
H      -47.82860000     -30.64370000     -73.36430000
H      -47.59000000     -29.86120000     -71.81630000
C      -43.26910000     -31.11510000     -69.79450000
H      -42.29210000     -30.86290000     -70.10660000
H      -43.73260000     -30.25510000     -69.24770000
S      -48.71930000     -32.09800000     -71.74270000
S      -43.03010000     -32.58650000     -68.63860000
C      -48.12310000     -32.74550000     -70.15670000
H      -47.14930000     -32.16150000     -69.89440000
H      -48.88900000     -32.61910000     -69.29480000
C      -44.63390000     -33.24080000     -68.25770000
H      -45.31220000     -32.55260000     -68.69140000
H      -44.92230000     -33.20570000     -67.20620000
C      -44.81770000     -34.65470000     -68.75860000
H      -44.23800000     -35.31810000     -68.07950000
H      -45.88310000     -34.97200000     -68.62550000
C      -47.69660000     -34.24850000     -70.20190000
H      -48.55910000     -34.86390000     -70.26920000
H      -47.22060000     -34.40510000     -69.24970000
C      -46.83120000     -34.70910000     -71.32190000
C      -47.26920000     -34.97210000     -72.57530000
C      -45.40930000     -34.88280000     -71.25910000
H      -48.26830000     -34.91860000     -72.95230000
C      -44.83270000     -35.25350000     -72.45580000
C      -44.43750000     -34.88150000     -70.15970000
C      -43.15390000     -35.16290000     -70.62000000
S      -46.00520000     -35.20390000     -73.73310000
S      -43.08400000     -35.51480000     -72.34970000
H      -42.36620000     -35.23840000     -69.87210000
