40
Properties=species:S:1:pos:R:3 #=T CELL(abcABC):=T 1.889726e+02=T 90.00000=T Traj:=T positionsangstrom=T Step:=T 0=T Bead:=T pbc="F F F"
C      -41.62980000     -31.66410000     -72.87360000
C      -42.50280000     -32.70200000     -72.54200000
C      -42.70490000     -32.98670000     -71.22370000
C      -42.06680000     -32.28160000     -70.15810000
C      -41.14880000     -31.23820000     -70.50400000
C      -40.95370000     -30.97450000     -71.84850000
H      -41.42930000     -31.32950000     -73.95400000
H      -43.44620000     -33.74280000     -70.91410000
H      -40.58200000     -30.66060000     -69.76240000
H      -40.32160000     -30.06650000     -72.03630000
C      -42.44810000     -32.56390000     -68.71370000
H      -41.67530000     -32.16630000     -68.04760000
H      -42.40720000     -33.64930000     -68.66960000
C      -43.18490000     -33.61390000     -73.64700000
H      -42.45020000     -33.75290000     -74.42470000
H      -43.39190000     -34.55400000     -73.12190000
S      -44.03140000     -31.85690000     -67.95460000
S      -44.62870000     -32.77900000     -74.44150000
C      -45.43070000     -33.03170000     -68.26080000
H      -45.13960000     -34.02780000     -68.06090000
H      -46.13570000     -32.84490000     -67.44170000
C      -45.42310000     -31.76660000     -73.04770000
H      -45.35330000     -30.76540000     -73.41110000
H      -44.90460000     -31.93100000     -72.11960000
C      -46.98480000     -32.11190000     -72.89040000
H      -47.38800000     -31.49370000     -72.04470000
H      -47.47110000     -31.77680000     -73.77590000
C      -46.16850000     -32.74780000     -69.58410000
H      -45.41110000     -32.45930000     -70.26110000
H      -46.78590000     -31.78570000     -69.51770000
C      -47.06080000     -33.84310000     -70.02310000
C      -47.40790000     -34.77390000     -69.07690000
C      -47.45130000     -34.14330000     -71.36980000
H      -47.27980000     -34.88700000     -68.00420000
C      -48.03460000     -35.42160000     -71.40200000
C      -47.37670000     -33.51060000     -72.65080000
C      -47.85150000     -34.34760000     -73.59980000
S      -48.21080000     -36.17480000     -69.83690000
S      -48.49310000     -35.86050000     -73.04980000
H      -47.97060000     -34.09980000     -74.63820000
