40
Properties=species:S:1:pos:R:3 #=T CELL(abcABC):=T 1.889726e+02=T 90.00000=T Traj:=T positionsangstrom=T Step:=T 0=T Bead:=T pbc="F F F"
C      -41.69320000     -31.63660000     -72.71110000
C      -42.54770000     -32.75210000     -72.45670000
C      -42.73260000     -33.17640000     -71.17400000
C      -42.11880000     -32.51810000     -70.06290000
C      -41.43640000     -31.30450000     -70.34140000
C      -41.21640000     -30.87360000     -71.64850000
H      -41.43170000     -31.40400000     -73.73740000
H      -43.26080000     -34.11320000     -70.99530000
H      -41.06740000     -30.73010000     -69.48580000
H      -40.53630000     -30.09090000     -71.71180000
C      -42.43250000     -32.80270000     -68.67630000
H      -41.66830000     -32.61220000     -67.89610000
H      -42.80470000     -33.80740000     -68.58350000
C      -43.07700000     -33.52490000     -73.66180000
H      -42.32960000     -33.62640000     -74.50520000
H      -43.39380000     -34.50920000     -73.42080000
S      -43.86160000     -31.58260000     -68.31040000
S      -44.62820000     -32.70960000     -74.32170000
C      -45.23520000     -32.89130000     -68.37590000
H      -44.75480000     -33.85900000     -68.67240000
H      -45.62400000     -32.99120000     -67.36380000
C      -45.41600000     -31.85640000     -72.91370000
H      -45.13350000     -30.76150000     -73.01700000
H      -44.92030000     -32.09020000     -71.94930000
C      -47.00080000     -32.05840000     -72.89460000
H      -47.44430000     -31.36390000     -72.19930000
H      -47.33150000     -31.95350000     -73.97610000
C      -46.41260000     -32.61620000     -69.39010000
H      -46.02980000     -32.14710000     -70.30650000
H      -47.20160000     -32.01610000     -68.94670000
C      -47.08140000     -33.90640000     -69.89510000
C      -47.44780000     -34.97310000     -69.10410000
C      -47.46460000     -34.14520000     -71.32000000
H      -47.44500000     -35.12260000     -68.05710000
C      -47.92810000     -35.46780000     -71.47470000
C      -47.47020000     -33.42820000     -72.56530000
C      -47.91950000     -34.17500000     -73.62460000
S      -48.17890000     -36.32220000     -70.00260000
S      -48.37280000     -35.87740000     -73.09190000
H      -47.87930000     -33.93390000     -74.66880000
