40
Properties=species:S:1:pos:R:3 #=T CELL(abcABC):=T 1.889726e+02=T 90.00000=T Traj:=T positionsangstrom=T Step:=T 0=T Bead:=T pbc="F F F"
C      -41.93970000     -31.60480000     -72.73490000
C      -42.49160000     -32.85210000     -72.44640000
C      -42.51880000     -33.30580000     -71.08810000
C      -42.08780000     -32.45840000     -70.05330000
C      -41.32730000     -31.31840000     -70.41530000
C      -41.24480000     -30.92230000     -71.77680000
H      -42.04990000     -31.25900000     -73.74120000
H      -43.05710000     -34.18490000     -70.75400000
H      -40.93720000     -30.71800000     -69.62590000
H      -40.67640000     -30.06160000     -71.98170000
C      -42.55790000     -32.76050000     -68.64740000
H      -41.96010000     -32.45620000     -67.78420000
H      -42.82010000     -33.81650000     -68.45890000
C      -43.24880000     -33.59500000     -73.53480000
H      -42.52990000     -33.90460000     -74.33220000
H      -43.67290000     -34.52530000     -73.21100000
S      -44.17420000     -31.69020000     -68.35240000
S      -44.58300000     -32.57040000     -74.21960000
C      -45.44990000     -32.98930000     -68.42690000
H      -44.99750000     -33.93030000     -68.76020000
H      -45.93640000     -33.13830000     -67.45050000
C      -45.27530000     -31.94070000     -72.67790000
H      -45.10460000     -30.91030000     -72.47810000
H      -44.95340000     -32.56030000     -71.84160000
C      -46.83820000     -32.04440000     -72.70500000
H      -47.23050000     -31.50800000     -71.83470000
H      -47.30640000     -31.51830000     -73.54770000
C      -46.50760000     -32.57370000     -69.48090000
H      -46.03230000     -32.03060000     -70.31060000
H      -47.22500000     -31.86970000     -69.07140000
C      -47.11650000     -33.86540000     -69.98970000
C      -47.25630000     -34.94880000     -69.17730000
C      -47.53520000     -34.13570000     -71.35850000
H      -46.90360000     -34.92010000     -68.16100000
C      -47.99880000     -35.47450000     -71.53250000
C      -47.39210000     -33.43860000     -72.60950000
C      -47.75940000     -34.24090000     -73.67200000
S      -47.92740000     -36.31840000     -69.99360000
S      -48.36240000     -35.76840000     -73.19180000
H      -47.69990000     -34.09280000     -74.73580000
