40
Properties=species:S:1:pos:R:3 #=T CELL(abcABC):=T 1.889726e+02=T 90.00000=T Traj:=T positionsangstrom=T Step:=T 0=T Bead:=T pbc="F F F"
C      -42.96880000     -36.00050000     -73.57420000
C      -42.67060000     -35.69270000     -72.17050000
C      -42.30850000     -34.39790000     -71.86880000
C      -42.10070000     -33.38730000     -72.85990000
C      -42.36710000     -33.69660000     -74.17440000
C      -42.86130000     -34.97710000     -74.56960000
H      -43.53230000     -36.79860000     -73.90890000
H      -42.10110000     -34.05860000     -70.86380000
H      -42.09780000     -32.97830000     -74.98610000
H      -42.94850000     -35.10400000     -75.60950000
C      -41.78340000     -31.98480000     -72.38100000
H      -40.84320000     -31.50060000     -72.82730000
H      -41.64440000     -31.98390000     -71.31590000
C      -42.76340000     -36.82210000     -71.07850000
H      -43.44410000     -37.60020000     -71.48820000
H      -41.77730000     -37.37260000     -70.97930000
S      -43.14030000     -30.82300000     -72.71990000
S      -43.45830000     -36.01090000     -69.54640000
C      -44.57560000     -31.42900000     -71.73030000
H      -44.29510000     -31.56950000     -70.65730000
H      -45.28480000     -30.58130000     -71.60030000
C      -45.02780000     -35.29390000     -70.12540000
H      -45.84340000     -36.10750000     -70.25040000
H      -44.85040000     -34.94340000     -71.17140000
C      -45.49230000     -34.07450000     -69.33080000
H      -45.59600000     -34.48520000     -68.28070000
H      -44.82350000     -33.33040000     -69.29590000
C      -45.56400000     -32.51430000     -72.36490000
H      -45.15480000     -33.45660000     -72.10060000
H      -45.48860000     -32.40220000     -73.48090000
C      -46.95610000     -32.35070000     -71.86180000
C      -47.93620000     -31.74260000     -72.66170000
C      -47.39270000     -32.68170000     -70.54570000
H      -47.87730000     -31.21380000     -73.62530000
C      -48.73510000     -32.26420000     -70.27890000
C      -46.87240000     -33.49430000     -69.50080000
C      -47.78550000     -33.64830000     -68.50680000
S      -49.44960000     -31.50850000     -71.68550000
S      -49.32740000     -32.81570000     -68.71200000
H      -47.61870000     -34.21400000     -67.58190000
