40
Properties=species:S:1:pos:R:3 #=T CELL(abcABC):=T 1.889726e+02=T 90.00000=T Traj:=T positionsangstrom=T Step:=T 0=T Bead:=T pbc="F F F"
C      -49.37060000     -32.19370000     -71.92340000
C      -48.10230000     -31.59820000     -72.11820000
C      -47.24650000     -31.97010000     -73.17300000
C      -47.49990000     -33.13190000     -73.95070000
C      -48.67670000     -33.83830000     -73.64720000
C      -49.61300000     -33.38410000     -72.65060000
H      -50.10120000     -31.83310000     -71.16870000
H      -46.25160000     -31.48890000     -73.18710000
H      -49.01490000     -34.63930000     -74.27710000
H      -50.50150000     -33.98330000     -72.52360000
C      -46.58680000     -33.70580000     -74.98030000
H      -46.72720000     -33.26290000     -75.99880000
H      -46.66420000     -34.74330000     -75.09550000
C      -47.77480000     -30.31060000     -71.41710000
H      -48.31330000     -29.55280000     -71.96860000
H      -48.21660000     -30.35980000     -70.40990000
S      -44.82810000     -33.35600000     -74.59350000
S      -45.98030000     -29.85280000     -71.33940000
C      -44.55550000     -34.68120000     -73.36570000
H      -44.85060000     -35.60620000     -73.91800000
H      -43.42300000     -34.80480000     -73.17580000
C      -45.27360000     -31.37910000     -70.38570000
H      -45.87060000     -32.17350000     -70.76370000
H      -45.51340000     -31.18300000     -69.36890000
C      -43.70620000     -31.67660000     -70.51750000
H      -43.59380000     -31.75710000     -71.62180000
H      -43.10190000     -30.80090000     -70.12320000
C      -45.25980000     -34.51970000     -72.05790000
H      -46.35350000     -34.87710000     -72.07880000
H      -45.37300000     -33.37870000     -71.87240000
C      -44.55960000     -35.10700000     -70.83550000
C      -44.59760000     -36.48500000     -70.48430000
C      -43.81780000     -34.30540000     -69.92090000
H      -45.17160000     -37.33920000     -70.95400000
C      -43.36970000     -35.13240000     -68.90380000
C      -43.43180000     -32.92240000     -69.71690000
C      -42.58630000     -32.81700000     -68.60550000
S      -43.72700000     -36.81470000     -69.11240000
S      -42.27310000     -34.37030000     -67.74700000
H      -41.99190000     -31.89530000     -68.51400000
