40
Properties=species:S:1:pos:R:3 #=T CELL(abcABC):=T 1.889726e+02=T 90.00000=T Traj:=T positionsangstrom=T Step:=T 0=T Bead:=T pbc="F F F"
C      -43.51370000     -31.62670000     -72.15030000
C      -44.00110000     -30.97260000     -70.94530000
C      -45.26710000     -30.37810000     -70.88330000
C      -46.21220000     -30.53100000     -72.00170000
C      -45.75810000     -31.31510000     -73.08740000
C      -44.43080000     -31.70820000     -73.20510000
H      -42.52440000     -31.97520000     -72.14310000
H      -45.47710000     -29.96780000     -69.90140000
H      -46.48130000     -31.57400000     -73.86090000
H      -44.14920000     -32.21610000     -74.15360000
C      -47.69350000     -30.15880000     -72.02770000
H      -47.89330000     -29.52420000     -72.83470000
H      -47.98870000     -29.60190000     -71.12750000
C      -43.08180000     -30.82760000     -69.73900000
H      -42.07960000     -30.50120000     -70.01440000
H      -43.61730000     -30.13660000     -68.99610000
S      -48.61220000     -31.75140000     -72.21740000
S      -42.91280000     -32.47280000     -68.97880000
C      -47.93280000     -32.70350000     -70.67510000
H      -46.99740000     -32.32050000     -70.48070000
H      -48.61750000     -32.43400000     -69.81920000
C      -44.64530000     -32.87920000     -68.63940000
H      -45.29330000     -32.35670000     -69.36010000
H      -44.88980000     -32.47320000     -67.68950000
C      -44.86630000     -34.36370000     -68.75710000
H      -44.32210000     -34.86200000     -67.94760000
H      -45.93300000     -34.53450000     -68.58330000
C      -47.78940000     -34.21080000     -70.74010000
H      -48.76690000     -34.59720000     -70.86560000
H      -47.60580000     -34.49800000     -69.70010000
C      -46.70530000     -34.79460000     -71.52580000
C      -47.07930000     -35.34920000     -72.70530000
C      -45.35540000     -35.15140000     -71.13410000
H      -48.11400000     -35.54890000     -73.02080000
C      -44.79420000     -35.80040000     -72.21080000
C      -44.40780000     -35.02030000     -70.08330000
C      -43.25520000     -35.68760000     -70.21930000
S      -45.82370000     -36.19650000     -73.56570000
S      -43.16710000     -36.38030000     -71.84510000
H      -42.43310000     -35.65470000     -69.58550000
