40
Properties=species:S:1:pos:R:3 #=T CELL(abcABC):=T 1.889726e+02=T 90.00000=T Traj:=T positionsangstrom=T Step:=T 0=T Bead:=T pbc="F F F"
C      -49.25940000     -32.07780000     -71.81860000
C      -48.08210000     -31.47420000     -72.23610000
C      -47.27850000     -31.83770000     -73.32530000
C      -47.60800000     -33.04830000     -74.00610000
C      -48.81110000     -33.69240000     -73.58920000
C      -49.63830000     -33.21370000     -72.56060000
H      -49.90110000     -31.66040000     -70.98160000
H      -46.53020000     -31.07840000     -73.64880000
H      -49.08510000     -34.62130000     -74.08920000
H      -50.44830000     -33.81640000     -72.38740000
C      -46.68720000     -33.64670000     -75.07700000
H      -46.87610000     -33.12800000     -76.00670000
H      -46.81390000     -34.75030000     -75.34620000
C      -47.66330000     -30.22670000     -71.40180000
H      -47.98480000     -29.27630000     -71.80720000
H      -48.18160000     -30.25160000     -70.39800000
S      -44.80670000     -33.40770000     -74.78490000
S      -45.83830000     -30.05940000     -71.15400000
C      -44.24670000     -34.58620000     -73.40310000
H      -44.22210000     -35.51830000     -73.86380000
H      -43.29090000     -34.25140000     -73.04090000
C      -45.46930000     -31.55440000     -70.31690000
H      -46.12140000     -32.40320000     -70.63890000
H      -45.59020000     -31.46980000     -69.20420000
C      -44.01540000     -31.87310000     -70.60360000
H      -43.92590000     -32.25940000     -71.60110000
H      -43.36110000     -31.04100000     -70.30250000
C      -45.08970000     -34.58410000     -72.17750000
H      -45.96410000     -35.16610000     -72.31750000
H      -45.53220000     -33.60460000     -72.01830000
C      -44.38110000     -35.17680000     -70.97460000
C      -44.54330000     -36.50160000     -70.62030000
C      -43.74420000     -34.41400000     -69.90120000
H      -45.10660000     -37.26610000     -71.21290000
C      -43.31470000     -35.14640000     -68.82520000
C      -43.49680000     -32.98180000     -69.69990000
C      -42.81840000     -32.76210000     -68.53090000
S      -43.70780000     -36.83100000     -69.04360000
S      -42.39570000     -34.24030000     -67.65750000
H      -42.58850000     -31.80500000     -68.07090000
