40
Properties=species:S:1:pos:R:3 #=T CELL(abcABC):=T 1.889726e+02=T 90.00000=T Traj:=T positionsangstrom=T Step:=T 0=T Bead:=T pbc="F F F"
C      -49.04330000     -32.17510000     -71.73530000
C      -48.03090000     -31.39570000     -72.20820000
C      -47.32330000     -31.82680000     -73.38160000
C      -47.55950000     -33.07250000     -73.93790000
C      -48.51680000     -33.92540000     -73.33490000
C      -49.32510000     -33.47850000     -72.32780000
H      -49.77150000     -31.83690000     -71.01040000
H      -46.47000000     -31.19960000     -73.60150000
H      -48.61540000     -34.90950000     -73.84160000
H      -50.26200000     -33.92140000     -71.96530000
C      -46.61750000     -33.58500000     -75.02370000
H      -46.49350000     -32.71890000     -75.74520000
H      -46.92640000     -34.46690000     -75.49060000
C      -47.85090000     -30.11260000     -71.49420000
H      -48.12830000     -29.37910000     -72.19790000
H      -48.54580000     -29.99920000     -70.62680000
S      -44.76690000     -33.69440000     -74.46590000
S      -46.04230000     -29.77130000     -71.03480000
C      -44.84730000     -35.13560000     -73.20950000
H      -45.22740000     -36.05560000     -73.71870000
H      -43.77570000     -35.39050000     -73.04510000
C      -45.39430000     -31.48080000     -70.41650000
H      -46.10460000     -32.12110000     -70.88840000
H      -45.51830000     -31.35110000     -69.35870000
C      -43.92210000     -31.72510000     -70.88330000
H      -43.87420000     -31.98410000     -71.96580000
H      -43.32130000     -30.77600000     -70.76870000
C      -45.65160000     -34.79520000     -71.96500000
H      -46.58670000     -35.33740000     -71.90850000
H      -45.79550000     -33.68260000     -71.94400000
C      -44.83970000     -35.13630000     -70.76360000
C      -44.89700000     -36.36920000     -70.26060000
C      -43.77470000     -34.35520000     -70.10390000
H      -45.54560000     -37.11890000     -70.69530000
C      -43.07970000     -35.14850000     -69.10550000
C      -43.37960000     -32.95200000     -70.06290000
C      -42.42250000     -32.70110000     -69.10420000
S      -43.80810000     -36.67350000     -68.87790000
S      -41.96090000     -34.16650000     -68.14300000
H      -42.06410000     -31.70210000     -68.93830000
