40
Properties=species:S:1:pos:R:3 #=T CELL(abcABC):=T 1.889726e+02=T 90.00000=T Traj:=T positionsangstrom=T Step:=T 0=T Bead:=T pbc="F F F"
C      -49.07140000     -32.11300000     -71.75770000
C      -48.01430000     -31.29660000     -72.15010000
C      -47.29250000     -31.59200000     -73.31270000
C      -47.50460000     -32.85020000     -73.95260000
C      -48.67680000     -33.58220000     -73.61680000
C      -49.44380000     -33.19230000     -72.53900000
H      -49.81740000     -31.85820000     -70.99790000
H      -46.45300000     -31.00020000     -73.56940000
H      -48.87780000     -34.44960000     -74.29370000
H      -50.30180000     -33.71420000     -72.38920000
C      -46.64160000     -33.39710000     -75.04900000
H      -46.38610000     -32.66850000     -75.78890000
H      -47.18740000     -34.19160000     -75.58440000
C      -47.65790000     -30.11390000     -71.31450000
H      -48.24920000     -29.22140000     -71.71170000
H      -47.95410000     -30.10430000     -70.28420000
S      -44.96950000     -33.94300000     -74.50980000
S      -45.81400000     -29.62570000     -71.14490000
C      -45.00420000     -35.39990000     -73.39850000
H      -45.53560000     -36.20930000     -73.85120000
H      -43.97400000     -35.73670000     -73.30750000
C      -45.29820000     -31.04950000     -70.18500000
H      -46.06340000     -31.72910000     -69.84540000
H      -44.81030000     -30.80710000     -69.19370000
C      -44.31870000     -31.95830000     -70.96080000
H      -44.87200000     -32.46410000     -71.77170000
H      -43.54180000     -31.35700000     -71.39280000
C      -45.51230000     -35.14470000     -71.94640000
H      -46.43240000     -35.66120000     -71.74910000
H      -45.93620000     -34.13580000     -71.78580000
C      -44.54650000     -35.45230000     -70.85660000
C      -44.37480000     -36.76410000     -70.34680000
C      -43.78190000     -34.47560000     -70.08050000
H      -44.93660000     -37.60320000     -70.72360000
C      -43.06850000     -35.11330000     -69.03200000
C      -43.63420000     -32.97840000     -70.02050000
C      -42.84340000     -32.61850000     -68.91870000
S      -43.45610000     -36.80020000     -68.82140000
S      -42.22710000     -34.02260000     -68.03090000
H      -42.74600000     -31.63090000     -68.51220000
