40
Properties=species:S:1:pos:R:3 #=T CELL(abcABC):=T 1.889726e+02=T 90.00000=T Traj:=T positionsangstrom=T Step:=T 0=T Bead:=T pbc="F F F"
C      -49.05590000     -32.15440000     -71.75090000
C      -48.00310000     -31.31060000     -72.22520000
C      -47.25970000     -31.69670000     -73.31030000
C      -47.50730000     -32.81810000     -74.03040000
C      -48.64650000     -33.59950000     -73.66650000
C      -49.37950000     -33.26750000     -72.51870000
H      -49.58210000     -31.96200000     -70.81880000
H      -46.44610000     -31.01310000     -73.73470000
H      -49.00000000     -34.44950000     -74.22510000
H      -50.26330000     -33.90230000     -72.21650000
C      -46.61840000     -33.33980000     -75.13870000
H      -46.36360000     -32.50280000     -75.89290000
H      -47.12080000     -34.19040000     -75.66500000
C      -47.58560000     -29.99760000     -71.50820000
H      -47.88780000     -29.24360000     -72.15660000
H      -48.13080000     -29.95240000     -70.55250000
S      -45.02510000     -33.83130000     -74.43200000
S      -45.82520000     -29.72460000     -71.22730000
C      -45.25630000     -35.27720000     -73.33440000
H      -45.90060000     -35.96600000     -73.90630000
H      -44.26670000     -35.75780000     -73.29590000
C      -45.08070000     -31.12170000     -70.21530000
H      -45.85530000     -31.74340000     -69.70510000
H      -44.54230000     -30.45760000     -69.53380000
C      -44.13550000     -32.00720000     -70.97160000
H      -44.56140000     -32.53620000     -71.80770000
H      -43.32960000     -31.35940000     -71.42110000
C      -45.68610000     -35.02270000     -71.81630000
H      -46.52650000     -35.67890000     -71.65170000
H      -45.84450000     -33.97850000     -71.67360000
C      -44.66810000     -35.42890000     -70.74020000
C      -44.47220000     -36.73050000     -70.28110000
C      -43.89320000     -34.43350000     -69.91330000
H      -45.02040000     -37.60540000     -70.68380000
C      -43.17480000     -35.09240000     -68.93720000
C      -43.61930000     -33.01600000     -69.96010000
C      -42.74530000     -32.63800000     -68.95120000
S      -43.26570000     -36.89980000     -69.02280000
S      -42.34200000     -34.00850000     -67.86050000
H      -42.49720000     -31.59650000     -68.68270000
