40
Properties=species:S:1:pos:R:3 #=T CELL(abcABC):=T 1.889726e+02=T 90.00000=T Traj:=T positionsangstrom=T Step:=T 0=T Bead:=T pbc="F F F"
C      -48.80280000     -31.79010000     -71.85370000
C      -47.66870000     -31.09680000     -72.42230000
C      -47.01860000     -31.60820000     -73.50180000
C      -47.37210000     -32.87460000     -74.06080000
C      -48.49080000     -33.56300000     -73.54760000
C      -49.21520000     -32.97360000     -72.46450000
H      -49.34900000     -31.23050000     -71.09070000
H      -46.23150000     -31.14880000     -74.01610000
H      -48.88400000     -34.52160000     -73.94620000
H      -50.07310000     -33.48510000     -72.08730000
C      -46.57680000     -33.52780000     -75.13390000
H      -46.34990000     -32.77330000     -75.93460000
H      -47.09780000     -34.38660000     -75.69700000
C      -47.28740000     -29.74300000     -71.91230000
H      -46.97990000     -28.98820000     -72.60750000
H      -48.09900000     -29.43450000     -71.28750000
S      -44.87320000     -34.02670000     -74.53530000
S      -45.76490000     -29.70050000     -70.87770000
C      -45.20400000     -35.23260000     -73.20440000
H      -45.81540000     -36.02660000     -73.56880000
H      -44.22080000     -35.77990000     -73.19370000
C      -45.50590000     -31.30850000     -70.07280000
H      -46.20830000     -32.14530000     -70.19000000
H      -45.48230000     -31.09050000     -68.92110000
C      -44.12950000     -31.82980000     -70.60450000
H      -44.23310000     -32.04390000     -71.67520000
H      -43.39960000     -30.96660000     -70.61690000
C      -45.70240000     -34.73720000     -71.89250000
H      -46.77260000     -35.08620000     -71.73830000
H      -45.54660000     -33.61540000     -71.85220000
C      -44.94630000     -35.28720000     -70.74720000
C      -44.94090000     -36.56540000     -70.29510000
C      -44.02960000     -34.44300000     -69.93560000
H      -45.58110000     -37.33580000     -70.68110000
C      -43.37520000     -35.20760000     -68.95420000
C      -43.57470000     -33.07410000     -69.88750000
C      -42.55310000     -32.92000000     -68.97140000
S      -43.86630000     -36.85090000     -68.99810000
S      -42.12030000     -34.38080000     -68.06020000
H      -42.20140000     -32.03840000     -68.50010000
