40
Properties=species:S:1:pos:R:3 #=T CELL(abcABC):=T 1.889726e+02=T 90.00000=T Traj:=T positionsangstrom=T Step:=T 0=T Bead:=T pbc="F F F"
C      -48.98210000     -32.26360000     -71.76300000
C      -47.99860000     -31.35380000     -72.25420000
C      -47.35430000     -31.68080000     -73.40660000
C      -47.56990000     -32.93320000     -74.03480000
C      -48.48640000     -33.82960000     -73.54080000
C      -49.22690000     -33.46170000     -72.39620000
H      -49.53650000     -31.95760000     -70.79460000
H      -46.71050000     -30.95980000     -73.85150000
H      -48.59280000     -34.80940000     -74.05350000
H      -49.88790000     -34.07280000     -71.85040000
C      -46.64370000     -33.37540000     -75.16020000
H      -46.65270000     -32.72170000     -75.99030000
H      -46.92330000     -34.33460000     -75.59330000
C      -47.73360000     -30.05780000     -71.55390000
H      -47.86850000     -29.25740000     -72.28690000
H      -48.34920000     -29.98330000     -70.61090000
S      -44.88190000     -33.57460000     -74.53130000
S      -46.01810000     -29.88580000     -71.05760000
C      -44.69330000     -34.98320000     -73.21660000
H      -44.94630000     -35.90950000     -73.69330000
H      -43.61750000     -34.87440000     -73.02600000
C      -45.60990000     -31.46100000     -70.29600000
H      -46.40920000     -32.22330000     -70.41880000
H      -45.35730000     -31.29880000     -69.19470000
C      -44.19890000     -31.90630000     -70.87330000
H      -44.32420000     -32.28070000     -71.89470000
H      -43.61860000     -31.03670000     -70.99390000
C      -45.52460000     -34.82950000     -71.92090000
H      -46.45360000     -35.41620000     -72.15800000
H      -45.85890000     -33.82880000     -71.79300000
C      -44.88180000     -35.26720000     -70.60680000
C      -44.80730000     -36.53070000     -70.11520000
C      -43.97410000     -34.41610000     -69.86630000
H      -45.30350000     -37.39250000     -70.45450000
C      -43.22040000     -35.12530000     -68.85550000
C      -43.55870000     -33.05670000     -69.98930000
C      -42.42040000     -32.76780000     -69.23050000
S      -43.69110000     -36.76850000     -68.77770000
S      -41.85290000     -34.09790000     -68.23800000
H      -42.01130000     -31.76980000     -69.25320000
