40
Properties=species:S:1:pos:R:3 #=T CELL(abcABC):=T 1.889726e+02=T 90.00000=T Traj:=T positionsangstrom=T Step:=T 0=T Bead:=T pbc="F F F"
C      -48.63860000     -31.68150000     -71.43240000
C      -47.65530000     -31.12280000     -72.20660000
C      -47.12320000     -31.80110000     -73.30350000
C      -47.67260000     -33.01430000     -73.70840000
C      -48.75540000     -33.52780000     -72.95830000
C      -49.19110000     -32.89920000     -71.79610000
H      -48.93500000     -31.17910000     -70.51450000
H      -46.30980000     -31.37550000     -73.85990000
H      -49.28460000     -34.44550000     -73.35650000
H      -49.97700000     -33.37580000     -71.21700000
C      -47.16960000     -33.75720000     -74.89750000
H      -47.21150000     -33.29610000     -75.89520000
H      -47.69920000     -34.64860000     -75.00560000
C      -47.13150000     -29.74520000     -71.89700000
H      -47.08280000     -29.16880000     -72.81690000
H      -47.65120000     -29.15550000     -71.11150000
S      -45.34900000     -34.01770000     -74.91970000
S      -45.41830000     -29.76490000     -71.34790000
C      -45.14120000     -35.07570000     -73.45910000
H      -45.76760000     -35.99370000     -73.41590000
H      -44.12840000     -35.36370000     -73.52540000
C      -45.29930000     -31.26700000     -70.27710000
H      -45.94210000     -32.02830000     -70.75500000
H      -45.64340000     -31.06410000     -69.27660000
C      -43.84060000     -31.76160000     -70.29130000
H      -43.58970000     -31.97640000     -71.38040000
H      -43.12810000     -30.98100000     -70.07890000
C      -45.36800000     -34.30420000     -72.11800000
H      -46.44070000     -34.23500000     -71.90280000
H      -44.86630000     -33.39120000     -72.33470000
C      -44.70720000     -34.93440000     -70.92210000
C      -44.62130000     -36.29720000     -70.88260000
C      -43.98940000     -34.37020000     -69.84240000
H      -45.19690000     -36.92120000     -71.59040000
C      -43.44400000     -35.28760000     -68.96200000
C      -43.60440000     -32.99970000     -69.45340000
C      -42.74630000     -32.99950000     -68.40460000
S      -43.64030000     -36.94560000     -69.49180000
S      -42.37080000     -34.62440000     -67.75390000
H      -42.29700000     -32.13030000     -67.98710000
