40
Properties=species:S:1:pos:R:3 #=T CELL(abcABC):=T 1.889726e+02=T 90.00000=T Traj:=T positionsangstrom=T Step:=T 0=T Bead:=T pbc="F F F"
C      -48.84790000     -31.60510000     -71.43400000
C      -47.80500000     -31.06030000     -72.20790000
C      -47.36360000     -31.68720000     -73.37690000
C      -47.89650000     -32.91840000     -73.74830000
C      -48.87260000     -33.49080000     -72.89230000
C      -49.38710000     -32.86420000     -71.80080000
H      -49.17370000     -31.15640000     -70.55840000
H      -46.57630000     -31.31090000     -74.01840000
H      -49.23950000     -34.49780000     -73.12910000
H      -50.23700000     -33.31730000     -71.27770000
C      -47.39530000     -33.77320000     -74.86410000
H      -47.62150000     -33.28020000     -75.84690000
H      -47.90100000     -34.76990000     -74.82960000
C      -47.15720000     -29.80920000     -71.67420000
H      -47.43830000     -29.01080000     -72.35490000
H      -47.55430000     -29.66780000     -70.68470000
S      -45.55280000     -34.01190000     -74.96750000
S      -45.22220000     -29.90590000     -71.59660000
C      -45.06600000     -35.04990000     -73.52550000
H      -45.73200000     -35.87610000     -73.56840000
H      -44.02170000     -35.45110000     -73.81470000
C      -45.08560000     -31.15600000     -70.27410000
H      -45.81080000     -32.03790000     -70.34920000
H      -45.08430000     -30.71040000     -69.26710000
C      -43.58500000     -31.68810000     -70.25650000
H      -43.08600000     -31.73710000     -71.22920000
H      -42.99760000     -30.96070000     -69.64580000
C      -45.02730000     -34.30210000     -72.24640000
H      -46.05820000     -34.08700000     -71.88830000
H      -44.54290000     -33.22850000     -72.29980000
C      -44.31480000     -35.04570000     -71.14880000
C      -44.46990000     -36.40580000     -70.89410000
C      -43.64370000     -34.41790000     -69.98100000
H      -44.99090000     -37.09160000     -71.53840000
C      -43.26670000     -35.32390000     -68.96320000
C      -43.34230000     -33.03470000     -69.52390000
C      -42.87170000     -32.98940000     -68.20490000
S      -43.71980000     -36.97720000     -69.36450000
S      -42.55700000     -34.55440000     -67.57510000
H      -42.73520000     -32.12760000     -67.59550000
