40
Properties=species:S:1:pos:R:3 #=T CELL(abcABC):=T 1.889726e+02=T 90.00000=T Traj:=T positionsangstrom=T Step:=T 0=T Bead:=T pbc="F F F"
C      -43.29570000     -30.97800000     -71.28910000
C      -43.84250000     -31.20010000     -70.00480000
C      -45.20610000     -30.92070000     -69.77690000
C      -46.12030000     -30.74320000     -70.87930000
C      -45.49910000     -30.54060000     -72.10940000
C      -44.12950000     -30.59660000     -72.34910000
H      -42.21590000     -31.03900000     -71.47180000
H      -45.54480000     -30.95950000     -68.79470000
H      -46.11780000     -30.13800000     -72.90830000
H      -43.71180000     -30.33930000     -73.31370000
C      -47.55930000     -30.50270000     -70.72160000
H      -47.98990000     -29.73640000     -71.35610000
H      -47.97780000     -30.49690000     -69.72410000
C      -43.02610000     -31.57800000     -68.84120000
H      -41.99550000     -31.26970000     -68.95450000
H      -43.57500000     -31.13830000     -67.94470000
S      -48.40110000     -32.09830000     -71.55780000
S      -43.03300000     -33.48920000     -68.73240000
C      -48.18030000     -33.43900000     -70.34020000
H      -47.42540000     -33.02870000     -69.63290000
H      -49.10980000     -33.46800000     -69.68920000
C      -44.78260000     -33.99220000     -68.90190000
H      -45.23560000     -33.30990000     -69.67870000
H      -45.23100000     -33.84840000     -67.84820000
C      -44.93630000     -35.46090000     -69.37330000
H      -44.25340000     -36.14080000     -68.92480000
H      -45.92390000     -35.86610000     -69.13090000
C      -47.95530000     -34.80970000     -70.96020000
H      -48.97240000     -35.20510000     -71.44770000
H      -47.74250000     -35.57280000     -70.19140000
C      -46.82410000     -34.81340000     -72.05900000
C      -47.18090000     -34.47680000     -73.35600000
C      -45.46790000     -35.11470000     -71.92880000
H      -48.13380000     -34.06740000     -73.69270000
C      -44.79070000     -35.08110000     -73.14790000
C      -44.62290000     -35.49060000     -70.82650000
C      -43.34950000     -35.71970000     -71.20720000
S      -45.85700000     -34.52000000     -74.45310000
S      -43.21440000     -35.73320000     -73.01240000
H      -42.59950000     -36.12210000     -70.50390000
