40
Properties=species:S:1:pos:R:3 #=T CELL(abcABC):=T 1.889726e+02=T 90.00000=T Traj:=T positionsangstrom=T Step:=T 0=T Bead:=T pbc="F F F"
C      -48.81330000     -31.72770000     -71.83890000
C      -47.72250000     -31.03200000     -72.32940000
C      -46.92870000     -31.67130000     -73.34870000
C      -47.33530000     -32.92500000     -73.95630000
C      -48.48240000     -33.56990000     -73.43550000
C      -49.18780000     -32.95560000     -72.36880000
H      -49.42630000     -31.20320000     -71.15610000
H      -45.95360000     -31.23060000     -73.66030000
H      -48.83660000     -34.53070000     -73.75560000
H      -50.12790000     -33.44000000     -71.93960000
C      -46.60620000     -33.42160000     -75.11000000
H      -46.33150000     -32.55240000     -75.75150000
H      -47.11160000     -34.21930000     -75.64660000
C      -47.19150000     -29.69720000     -71.72850000
H      -46.88610000     -28.97440000     -72.49710000
H      -47.95750000     -29.13880000     -71.26690000
S      -44.91830000     -34.21110000     -74.75340000
S      -45.76630000     -29.72030000     -70.54670000
C      -45.27880000     -35.33650000     -73.32730000
H      -46.00380000     -36.11970000     -73.57060000
H      -44.31060000     -35.76070000     -73.18090000
C      -45.33740000     -31.49890000     -70.09210000
H      -46.12650000     -32.25320000     -70.44610000
H      -45.25330000     -31.48770000     -68.96780000
C      -43.98940000     -31.88490000     -70.68670000
H      -44.05380000     -31.94050000     -71.82270000
H      -43.37320000     -31.05660000     -70.40910000
C      -45.63870000     -34.52230000     -72.02120000
H      -46.73190000     -34.41760000     -71.76080000
H      -45.47900000     -33.38670000     -72.21840000
C      -44.90720000     -35.06700000     -70.84780000
C      -45.00980000     -36.40000000     -70.46360000
C      -43.95100000     -34.41770000     -70.01200000
H      -45.64860000     -37.17950000     -70.87660000
C      -43.31450000     -35.28170000     -69.08820000
C      -43.41950000     -33.09460000     -69.98420000
C      -42.52120000     -32.88190000     -68.95050000
S      -44.00940000     -36.83900000     -69.10780000
S      -42.24810000     -34.37340000     -68.00790000
H      -41.85940000     -32.05070000     -68.91990000
