40
Properties=species:S:1:pos:R:3 #=T CELL(abcABC):=T 1.889726e+02=T 90.00000=T Traj:=T positionsangstrom=T Step:=T 0=T Bead:=T pbc="F F F"
C      -48.71370000     -31.80240000     -71.84050000
C      -47.56190000     -31.13750000     -72.29060000
C      -46.83890000     -31.70620000     -73.36130000
C      -47.31630000     -32.88010000     -74.02700000
C      -48.49480000     -33.53510000     -73.51330000
C      -49.14160000     -32.99060000     -72.42990000
H      -49.29700000     -31.44810000     -70.95370000
H      -45.99640000     -31.09930000     -73.66720000
H      -48.80700000     -34.37140000     -74.17670000
H      -50.01660000     -33.56570000     -72.11500000
C      -46.58590000     -33.57650000     -75.14860000
H      -46.55230000     -32.87010000     -76.00160000
H      -47.17210000     -34.37370000     -75.49810000
C      -47.22210000     -29.69390000     -71.85090000
H      -46.88860000     -29.20500000     -72.75720000
H      -48.21770000     -29.22530000     -71.51740000
S      -44.92650000     -34.15130000     -74.70050000
S      -45.76020000     -29.59240000     -70.64380000
C      -45.25570000     -35.33240000     -73.31110000
H      -46.09060000     -35.99500000     -73.66170000
H      -44.34460000     -35.91410000     -73.11360000
C      -45.34840000     -31.36540000     -70.19760000
H      -46.16050000     -31.95910000     -70.53130000
H      -45.37670000     -31.32160000     -69.11980000
C      -43.98200000     -31.82750000     -70.69470000
H      -44.14680000     -32.05410000     -71.76780000
H      -43.17580000     -31.13110000     -70.60470000
C      -45.69560000     -34.67090000     -71.96090000
H      -46.66480000     -35.03610000     -71.88730000
H      -45.70610000     -33.60380000     -72.00350000
C      -44.99380000     -35.13030000     -70.73890000
C      -45.10060000     -36.44790000     -70.35370000
C      -44.00530000     -34.41380000     -69.97240000
H      -45.74680000     -37.20480000     -70.74260000
C      -43.38900000     -35.25120000     -68.99020000
C      -43.56290000     -33.08240000     -69.90400000
C      -42.63020000     -32.88330000     -68.90570000
S      -43.99300000     -36.85210000     -69.00780000
S      -42.15540000     -34.37490000     -68.07060000
H      -42.08720000     -32.00120000     -68.68220000
