40
Properties=species:S:1:pos:R:3 #=T CELL(abcABC):=T 1.889726e+02=T 90.00000=T Traj:=T positionsangstrom=T Step:=T 0=T Bead:=T pbc="F F F"
C      -43.35150000     -31.26980000     -71.25730000
C      -43.89030000     -31.32360000     -69.95170000
C      -45.30120000     -31.16260000     -69.91470000
C      -46.08150000     -30.78440000     -71.02090000
C      -45.46780000     -30.74070000     -72.30030000
C      -44.10130000     -30.91440000     -72.38750000
H      -42.36040000     -31.71100000     -71.36930000
H      -45.76800000     -31.00290000     -68.92620000
H      -46.13700000     -30.36620000     -73.08870000
H      -43.54230000     -30.94050000     -73.33520000
C      -47.55750000     -30.60460000     -70.81280000
H      -47.86190000     -29.73220000     -71.43730000
H      -47.68630000     -30.29410000     -69.79450000
C      -42.94710000     -31.65880000     -68.81300000
H      -41.92210000     -31.22380000     -69.08670000
H      -43.23040000     -31.33070000     -67.79610000
S      -48.59860000     -32.01450000     -71.21890000
S      -42.67170000     -33.49410000     -68.59260000
C      -47.91660000     -33.40540000     -70.15100000
H      -46.86100000     -33.15530000     -69.84700000
H      -48.56050000     -33.42660000     -69.23510000
C      -44.47070000     -33.97940000     -68.60500000
H      -45.03300000     -33.13840000     -68.98570000
H      -44.79910000     -34.34910000     -67.52200000
C      -44.69680000     -35.24950000     -69.38810000
H      -44.03150000     -36.06890000     -69.09740000
H      -45.70930000     -35.61550000     -69.06000000
C      -47.98910000     -34.71700000     -70.95450000
H      -48.94930000     -34.96890000     -71.29750000
H      -47.70950000     -35.51500000     -70.18370000
C      -47.00900000     -34.79830000     -72.10160000
C      -47.44040000     -34.61510000     -73.42580000
C      -45.57620000     -35.07490000     -71.97620000
H      -48.42240000     -34.54960000     -73.80670000
C      -45.00100000     -35.18770000     -73.25940000
C      -44.59720000     -35.23000000     -70.89780000
C      -43.34800000     -35.41420000     -71.40850000
S      -46.10820000     -34.73090000     -74.56300000
S      -43.22270000     -35.31450000     -73.19110000
H      -42.43470000     -35.46280000     -70.78900000
