40
Properties=species:S:1:pos:R:3 #=T CELL(abcABC):=T 1.889726e+02=T 90.00000=T Traj:=T positionsangstrom=T Step:=T 0=T Bead:=T pbc="F F F"
C      -43.53340000     -31.43170000     -71.62400000
C      -43.50220000     -31.86800000     -70.28880000
C      -44.67210000     -31.66360000     -69.50070000
C      -45.80450000     -31.07080000     -70.03200000
C      -45.82180000     -30.55340000     -71.33120000
C      -44.69970000     -30.83880000     -72.09560000
H      -42.69960000     -31.64610000     -72.26740000
H      -44.71930000     -31.80540000     -68.40410000
H      -46.70590000     -30.15380000     -71.74970000
H      -44.60940000     -30.43120000     -73.09550000
C      -47.12690000     -31.09300000     -69.22400000
H      -47.49560000     -30.11680000     -69.02150000
H      -46.80960000     -31.52530000     -68.26160000
C      -42.20550000     -32.62310000     -69.78270000
H      -41.46240000     -32.36010000     -70.47290000
H      -41.88850000     -32.19720000     -68.80940000
S      -48.47720000     -32.10000000     -70.02550000
S      -42.31160000     -34.47780000     -69.54810000
C      -47.86140000     -33.78660000     -69.47690000
H      -46.89790000     -33.72720000     -69.00440000
H      -48.40960000     -34.20570000     -68.63930000
C      -44.06290000     -34.86370000     -69.14620000
H      -44.59390000     -33.94970000     -69.04140000
H      -44.00520000     -35.32980000     -68.19990000
C      -44.61520000     -35.88960000     -70.16560000
H      -43.87860000     -36.81340000     -70.13020000
H      -45.56080000     -36.27380000     -69.79600000
C      -47.88360000     -34.74320000     -70.67450000
H      -48.84440000     -34.87890000     -71.04660000
H      -47.51620000     -35.72140000     -70.27430000
C      -47.00390000     -34.23590000     -71.87600000
C      -47.54330000     -33.41790000     -72.82640000
C      -45.70750000     -34.68390000     -72.25340000
H      -48.45930000     -32.89930000     -72.85150000
C      -45.41180000     -34.33760000     -73.59680000
C      -44.64350000     -35.40190000     -71.58650000
C      -43.49890000     -35.53320000     -72.42290000
S      -46.60940000     -33.28740000     -74.31200000
S      -43.75440000     -34.75100000     -73.99320000
H      -42.56360000     -35.94720000     -72.23240000
