40
Properties=species:S:1:pos:R:3 #=T CELL(abcABC):=T 1.889726e+02=T 90.00000=T Traj:=T positionsangstrom=T Step:=T 0=T Bead:=T pbc="F F F"
C      -43.25620000     -35.74510000     -73.62250000
C      -42.87790000     -35.44220000     -72.27170000
C      -42.32830000     -34.20780000     -71.97100000
C      -42.31420000     -33.18880000     -72.98240000
C      -42.62840000     -33.55340000     -74.28130000
C      -43.25930000     -34.81310000     -74.59710000
H      -43.82200000     -36.65330000     -73.80270000
H      -41.94160000     -34.02390000     -70.94330000
H      -42.67320000     -32.80650000     -75.16170000
H      -43.63920000     -34.96950000     -75.61010000
C      -41.89020000     -31.82090000     -72.73140000
H      -41.11160000     -31.50460000     -73.44820000
H      -41.56340000     -31.71170000     -71.71270000
C      -42.88690000     -36.64410000     -71.20930000
H      -43.61440000     -37.34250000     -71.56610000
H      -41.96120000     -37.16090000     -71.19970000
S      -43.16080000     -30.50890000     -72.86800000
S      -43.40530000     -36.07340000     -69.57160000
C      -44.53510000     -30.93430000     -71.74640000
H      -44.10760000     -31.17000000     -70.79240000
H      -45.19770000     -30.07060000     -71.73550000
C      -45.10370000     -35.40390000     -69.85420000
H      -45.80280000     -36.08750000     -69.26750000
H      -45.39190000     -35.35550000     -70.90110000
C      -45.24400000     -33.99370000     -69.09900000
H      -44.80960000     -34.06950000     -68.02800000
H      -44.61550000     -33.29240000     -69.66400000
C      -45.38600000     -32.07870000     -72.27730000
H      -44.81640000     -32.98410000     -72.20350000
H      -45.63190000     -31.92910000     -73.34710000
C      -46.82400000     -32.21670000     -71.66170000
C      -47.85770000     -31.82520000     -72.45550000
C      -47.21190000     -32.72210000     -70.34110000
H      -47.77760000     -31.52940000     -73.46020000
C      -48.61200000     -32.65880000     -70.23680000
C      -46.66250000     -33.48060000     -69.20490000
C      -47.66280000     -33.80750000     -68.25510000
S      -49.37640000     -32.03840000     -71.67800000
S      -49.26780000     -33.33730000     -68.83390000
H      -47.48050000     -34.41690000     -67.39220000
