40
Properties=species:S:1:pos:R:3 #=T CELL(abcABC):=T 1.889726e+02=T 90.00000=T Traj:=T positionsangstrom=T Step:=T 0=T Bead:=T pbc="F F F"
C      -46.76430000     -31.81790000     -72.81810000
C      -46.23370000     -32.79930000     -73.68260000
C      -46.62720000     -34.15170000     -73.50510000
C      -47.43410000     -34.53830000     -72.38000000
C      -47.91810000     -33.53900000     -71.48720000
C      -47.59780000     -32.17840000     -71.76780000
H      -46.65170000     -30.75600000     -73.07030000
H      -46.15930000     -34.85380000     -74.18520000
H      -48.51840000     -33.77700000     -70.64520000
H      -48.05580000     -31.47530000     -71.05650000
C      -47.76640000     -36.05670000     -72.21940000
H      -47.66770000     -36.53850000     -73.21520000
H      -48.79560000     -36.05360000     -71.89410000
C      -45.29550000     -32.48720000     -74.80860000
H      -45.23320000     -33.24310000     -75.60830000
H      -45.56210000     -31.45020000     -75.14300000
S      -46.74090000     -36.86640000     -70.90370000
S      -43.43590000     -32.05860000     -74.25800000
C      -45.02370000     -36.38300000     -71.28480000
H      -44.50930000     -37.27260000     -71.56020000
H      -44.96430000     -35.77810000     -72.23400000
C      -42.94310000     -33.48680000     -73.19810000
H      -42.22740000     -34.10030000     -73.75980000
H      -43.88620000     -34.03450000     -73.12820000
C      -42.36290000     -33.27610000     -71.82610000
H      -42.20290000     -34.29890000     -71.46750000
H      -41.48470000     -32.68130000     -72.02420000
C      -44.30700000     -35.64510000     -70.17860000
H      -43.31680000     -35.39010000     -70.54940000
H      -44.06250000     -36.27190000     -69.36440000
C      -44.96380000     -34.37570000     -69.60310000
C      -45.92100000     -34.20600000     -68.61680000
C      -44.48370000     -33.05340000     -70.06820000
H      -46.49150000     -34.89560000     -68.06540000
C      -45.15030000     -32.04660000     -69.36750000
C      -43.29970000     -32.61560000     -70.80470000
C      -43.16300000     -31.26340000     -70.67110000
S      -46.15240000     -32.57220000     -68.06120000
S      -44.34900000     -30.48990000     -69.66420000
H      -42.67750000     -30.63400000     -71.39650000
