40
Properties=species:S:1:pos:R:3 #=T CELL(abcABC):=T 1.889726e+02=T 90.00000=T Traj:=T positionsangstrom=T Step:=T 0=T Bead:=T pbc="F F F"
C      -43.41270000     -31.43680000     -71.62010000
C      -43.42970000     -31.85220000     -70.26960000
C      -44.66570000     -31.68930000     -69.60330000
C      -45.83170000     -31.16200000     -70.13760000
C      -45.80230000     -30.79980000     -71.50090000
C      -44.58440000     -30.89750000     -72.20860000
H      -42.42270000     -31.42390000     -72.19920000
H      -44.68350000     -32.04110000     -68.56450000
H      -46.65720000     -30.29210000     -71.98900000
H      -44.48030000     -30.75360000     -73.30430000
C      -47.04450000     -30.86210000     -69.37140000
H      -47.43190000     -29.81680000     -69.59610000
H      -46.96690000     -30.93630000     -68.30160000
C      -42.31920000     -32.43370000     -69.50650000
H      -41.35890000     -32.21920000     -70.01310000
H      -42.30190000     -31.96670000     -68.52650000
S      -48.46260000     -31.88350000     -70.07300000
S      -42.24090000     -34.28100000     -69.41990000
C      -47.91250000     -33.64060000     -69.64440000
H      -46.88320000     -33.56280000     -69.48930000
H      -48.50630000     -33.84890000     -68.77320000
C      -44.03500000     -34.92530000     -69.10850000
H      -44.61970000     -34.01290000     -69.13050000
H      -44.04220000     -35.25870000     -68.11570000
C      -44.62240000     -35.92240000     -70.09760000
H      -44.12000000     -36.83270000     -70.05620000
H      -45.66250000     -36.13750000     -69.63820000
C      -48.04270000     -34.71320000     -70.75860000
H      -49.10490000     -34.82440000     -71.08660000
H      -47.77630000     -35.60380000     -70.20730000
C      -47.17720000     -34.44010000     -71.99410000
C      -47.71830000     -33.77690000     -73.05120000
C      -45.75100000     -34.69580000     -72.16840000
H      -48.79360000     -33.65720000     -73.36190000
C      -45.35210000     -34.24020000     -73.44560000
C      -44.71460000     -35.42750000     -71.47810000
C      -43.58720000     -35.63150000     -72.29820000
S      -46.53550000     -33.40820000     -74.36490000
S      -43.72130000     -34.87540000     -73.85510000
H      -42.59540000     -36.04900000     -71.94800000
