40
Properties=species:S:1:pos:R:3 #=T CELL(abcABC):=T 1.889726e+02=T 90.00000=T Traj:=T positionsangstrom=T Step:=T 0=T Bead:=T pbc="F F F"
C      -46.47730000     -31.72820000     -72.71810000
C      -46.11940000     -32.70600000     -73.63270000
C      -46.50120000     -34.05030000     -73.51290000
C      -47.32310000     -34.43630000     -72.40910000
C      -47.76360000     -33.40400000     -71.51250000
C      -47.30100000     -32.13930000     -71.65660000
H      -45.98000000     -30.73260000     -72.78290000
H      -46.37230000     -34.72100000     -74.33380000
H      -48.39330000     -33.58100000     -70.66320000
H      -47.68410000     -31.33330000     -71.03430000
C      -47.84250000     -35.77510000     -72.25870000
H      -47.65880000     -36.33380000     -73.17110000
H      -48.87080000     -35.96790000     -71.88850000
C      -45.14630000     -32.38620000     -74.77280000
H      -45.02010000     -33.22470000     -75.49270000
H      -45.49180000     -31.60880000     -75.35770000
S      -46.98390000     -36.74080000     -70.86640000
S      -43.53940000     -32.01720000     -73.97200000
C      -45.18150000     -36.37370000     -71.22450000
H      -44.73340000     -37.23360000     -71.67900000
H      -45.10050000     -35.48390000     -71.85990000
C      -43.24500000     -33.75200000     -73.24370000
H      -42.62850000     -34.35790000     -73.96530000
H      -44.24380000     -34.27010000     -73.17940000
C      -42.53650000     -33.49600000     -71.92430000
H      -42.24800000     -34.44530000     -71.41600000
H      -41.54580000     -33.07180000     -72.10690000
C      -44.36910000     -35.87210000     -70.02610000
H      -43.35570000     -35.99410000     -70.31330000
H      -44.61560000     -36.50240000     -69.09060000
C      -44.75100000     -34.46050000     -69.57240000
C      -45.75980000     -34.37230000     -68.67410000
C      -44.28790000     -33.12110000     -70.01900000
H      -46.31860000     -35.24920000     -68.32120000
C      -44.98710000     -32.11020000     -69.36910000
C      -43.31310000     -32.59420000     -70.96330000
C      -43.25710000     -31.23190000     -71.00830000
S      -46.23810000     -32.65660000     -68.25280000
S      -44.31500000     -30.49930000     -69.71780000
H      -42.55440000     -30.65830000     -71.68760000
