40
Properties=species:S:1:pos:R:3 #=T CELL(abcABC):=T 1.889726e+02=T 90.00000=T Traj:=T positionsangstrom=T Step:=T 0=T Bead:=T pbc="F F F"
C      -46.01230000     -31.78430000     -73.31380000
C      -45.64410000     -33.00700000     -73.90400000
C      -46.43250000     -34.14560000     -73.62980000
C      -47.48230000     -34.13270000     -72.70520000
C      -47.75430000     -32.89030000     -72.02700000
C      -47.05020000     -31.76470000     -72.36400000
H      -45.42530000     -30.87870000     -73.55080000
H      -46.34450000     -35.03760000     -74.27840000
H      -48.59710000     -32.87920000     -71.30740000
H      -47.19810000     -30.81090000     -71.86170000
C      -48.26080000     -35.32810000     -72.23470000
H      -48.11110000     -36.09260000     -73.02650000
H      -49.30890000     -35.25240000     -71.99180000
C      -44.41860000     -32.97340000     -74.80480000
H      -44.28490000     -33.90580000     -75.48250000
H      -44.44790000     -32.13340000     -75.53500000
S      -47.59310000     -36.21470000     -70.66540000
S      -42.74890000     -32.74850000     -73.85770000
C      -45.67950000     -36.28770000     -70.96390000
H      -45.48600000     -37.36610000     -71.24870000
H      -45.46850000     -35.72530000     -71.85440000
C      -42.84070000     -34.22090000     -72.78580000
H      -42.08340000     -34.96650000     -73.17550000
H      -43.91030000     -34.50660000     -72.78410000
C      -42.37810000     -33.92800000     -71.33460000
H      -42.29150000     -34.87120000     -70.78220000
H      -41.41310000     -33.45960000     -71.46810000
C      -44.91960000     -35.80570000     -69.78580000
H      -43.91760000     -35.93370000     -69.92220000
H      -45.15810000     -36.42770000     -68.88270000
C      -45.20220000     -34.34400000     -69.41820000
C      -46.28240000     -34.02750000     -68.62160000
C      -44.51200000     -33.12960000     -69.90110000
H      -46.93330000     -34.78120000     -68.13000000
C      -45.10680000     -31.96550000     -69.45520000
C      -43.29640000     -32.90610000     -70.66180000
C      -43.01610000     -31.54340000     -70.72030000
S      -46.56120000     -32.29980000     -68.51380000
S      -44.13850000     -30.53910000     -69.78240000
H      -42.03360000     -31.20930000     -71.14650000
