40
Properties=species:S:1:pos:R:3 #=T CELL(abcABC):=T 1.889726e+02=T 90.00000=T Traj:=T positionsangstrom=T Step:=T 0=T Bead:=T pbc="F F F"
C      -43.40390000     -35.64010000     -73.60480000
C      -42.90840000     -35.34660000     -72.35280000
C      -42.46170000     -34.06200000     -72.00370000
C      -42.33110000     -33.11310000     -73.05860000
C      -42.81320000     -33.42000000     -74.36170000
C      -43.37450000     -34.64770000     -74.64890000
H      -43.68430000     -36.61520000     -73.96410000
H      -42.34370000     -33.80390000     -70.95400000
H      -42.78960000     -32.66820000     -75.21290000
H      -43.95240000     -34.71290000     -75.54640000
C      -41.88570000     -31.73830000     -72.69670000
H      -41.08980000     -31.45460000     -73.40730000
H      -41.45390000     -31.85820000     -71.65940000
C      -42.97390000     -36.46770000     -71.30770000
H      -43.64420000     -37.26970000     -71.72100000
H      -41.96040000     -37.03090000     -71.26380000
S      -43.15310000     -30.41310000     -72.90410000
S      -43.37960000     -36.04330000     -69.55560000
C      -44.46760000     -31.06700000     -71.64590000
H      -43.93070000     -31.42280000     -70.74670000
H      -45.02440000     -30.14150000     -71.29330000
C      -44.96440000     -35.25750000     -69.79170000
H      -45.71130000     -35.96660000     -69.38360000
H      -45.13880000     -35.11260000     -70.81680000
C      -45.12990000     -33.81930000     -69.13880000
H      -44.72680000     -33.68480000     -68.11920000
H      -44.58100000     -33.12300000     -69.77080000
C      -45.38930000     -32.21700000     -72.23530000
H      -44.94210000     -33.18280000     -71.99560000
H      -45.35640000     -32.04240000     -73.30530000
C      -46.79950000     -32.23050000     -71.65710000
C      -47.85560000     -31.79170000     -72.35450000
C      -47.19380000     -32.90890000     -70.42640000
H      -47.89450000     -31.05750000     -73.11370000
C      -48.57480000     -32.91180000     -70.27620000
C      -46.58060000     -33.53770000     -69.22950000
C      -47.56700000     -33.95390000     -68.33200000
S      -49.43890000     -32.11600000     -71.55450000
S      -49.20390000     -33.58590000     -68.83410000
H      -47.24850000     -34.39800000     -67.38590000
