40
Properties=species:S:1:pos:R:3 #=T CELL(abcABC):=T 1.889726e+02=T 90.00000=T Traj:=T positionsangstrom=T Step:=T 0=T Bead:=T pbc="F F F"
C      -46.26630000     -31.59320000     -72.83200000
C      -45.82740000     -32.55370000     -73.76980000
C      -46.35720000     -33.84120000     -73.72910000
C      -47.33170000     -34.15560000     -72.74300000
C      -47.82700000     -33.15140000     -71.85930000
C      -47.28560000     -31.88470000     -71.89730000
H      -45.82750000     -30.55860000     -72.80510000
H      -46.06810000     -34.65120000     -74.43820000
H      -48.49570000     -33.44960000     -71.06890000
H      -47.59680000     -31.10980000     -71.13660000
C      -47.76370000     -35.65750000     -72.61250000
H      -47.24330000     -36.19490000     -73.44050000
H      -48.84220000     -35.67890000     -72.61210000
C      -44.58380000     -32.14020000     -74.62810000
H      -44.72670000     -32.40300000     -75.66800000
H      -44.61040000     -31.11360000     -74.61210000
S      -47.23810000     -36.30470000     -70.96060000
S      -42.86440000     -32.67920000     -74.15680000
C      -45.31910000     -36.13410000     -71.09820000
H      -44.93510000     -37.16100000     -71.43900000
H      -45.03640000     -35.39730000     -71.80810000
C      -43.12290000     -34.18590000     -73.04890000
H      -42.64820000     -35.04940000     -73.48540000
H      -44.19440000     -34.39170000     -73.16580000
C      -42.63140000     -33.83380000     -71.64540000
H      -42.73710000     -34.73530000     -71.08600000
H      -41.61960000     -33.52930000     -71.63140000
C      -44.65510000     -35.89370000     -69.79930000
H      -43.53970000     -36.00430000     -69.85660000
H      -44.98300000     -36.63070000     -69.05750000
C      -44.92180000     -34.52440000     -69.24980000
C      -45.79230000     -34.35780000     -68.20830000
C      -44.54230000     -33.25280000     -69.89200000
H      -46.37320000     -35.10480000     -67.80800000
C      -45.12640000     -32.10640000     -69.23330000
C      -43.50200000     -32.77090000     -70.82080000
C      -43.53620000     -31.40280000     -71.03700000
S      -46.18460000     -32.62330000     -67.92650000
S      -44.71460000     -30.54780000     -69.96040000
H      -42.98940000     -30.71920000     -71.71200000
