40
Properties=species:S:1:pos:R:3 #=T CELL(abcABC):=T 1.889726e+02=T 90.00000=T Traj:=T positionsangstrom=T Step:=T 0=T Bead:=T pbc="F F F"
C      -46.08380000     -31.63150000     -73.30830000
C      -45.68290000     -32.79000000     -74.01380000
C      -46.35200000     -34.05790000     -73.80930000
C      -47.31220000     -34.20580000     -72.76750000
C      -47.69710000     -33.07220000     -72.08140000
C      -47.17820000     -31.74390000     -72.42920000
H      -45.51760000     -30.76930000     -73.48140000
H      -46.09120000     -34.89090000     -74.47110000
H      -48.45990000     -33.13320000     -71.29210000
H      -47.52350000     -30.83090000     -71.93140000
C      -48.00690000     -35.49620000     -72.41840000
H      -48.05540000     -36.26200000     -73.19090000
H      -49.06330000     -35.18680000     -72.28850000
C      -44.46370000     -32.77770000     -74.91550000
H      -44.30440000     -33.73700000     -75.37600000
H      -44.44880000     -31.97620000     -75.72440000
S      -47.44660000     -36.24950000     -70.82220000
S      -42.86250000     -32.49640000     -73.96630000
C      -45.66870000     -36.27970000     -70.95850000
H      -45.19990000     -37.23460000     -71.30060000
H      -45.35180000     -35.57680000     -71.78150000
C      -42.93020000     -34.08000000     -72.98720000
H      -42.28890000     -34.84840000     -73.58090000
H      -43.98760000     -34.43870000     -73.04040000
C      -42.59520000     -33.96060000     -71.49390000
H      -42.77990000     -34.93620000     -71.12810000
H      -41.56120000     -33.78400000     -71.27490000
C      -44.84580000     -35.88600000     -69.64420000
H      -43.76880000     -36.13930000     -69.82700000
H      -45.13880000     -36.47950000     -68.81830000
C      -45.11200000     -34.43000000     -69.24620000
C      -45.96710000     -34.15190000     -68.22320000
C      -44.46470000     -33.24640000     -69.79850000
H      -46.38120000     -34.86490000     -67.48900000
C      -45.11670000     -32.11470000     -69.32800000
C      -43.42940000     -32.90990000     -70.71630000
C      -43.27720000     -31.52260000     -70.76860000
S      -46.39880000     -32.40670000     -68.16960000
S      -44.36730000     -30.58780000     -69.72530000
H      -42.68050000     -31.05790000     -71.45960000
