40
Properties=species:S:1:pos:R:3 #=T CELL(abcABC):=T 1.889726e+02=T 90.00000=T Traj:=T positionsangstrom=T Step:=T 0=T Bead:=T pbc="F F F"
C      -46.26020000     -31.61390000     -72.62710000
C      -45.94420000     -32.53790000     -73.58510000
C      -46.42360000     -33.86450000     -73.45960000
C      -47.32760000     -34.17700000     -72.46280000
C      -47.74670000     -33.21450000     -71.49470000
C      -47.26950000     -31.91370000     -71.66610000
H      -45.87330000     -30.62040000     -72.66240000
H      -46.22420000     -34.65030000     -74.24870000
H      -48.37020000     -33.36400000     -70.63040000
H      -47.42020000     -31.12020000     -70.92590000
C      -47.77500000     -35.59760000     -72.35090000
H      -47.44110000     -36.13010000     -73.27040000
H      -48.85040000     -35.56290000     -72.30320000
C      -45.00800000     -32.16460000     -74.69670000
H      -45.18120000     -32.73470000     -75.60750000
H      -45.01740000     -31.01340000     -74.94680000
S      -47.12900000     -36.45590000     -70.79280000
S      -43.20970000     -32.33290000     -74.20820000
C      -45.32330000     -36.29990000     -71.12130000
H      -45.00470000     -37.27620000     -71.56000000
H      -45.24220000     -35.64740000     -71.94060000
C      -43.23810000     -33.99250000     -73.29390000
H      -42.63380000     -34.71220000     -73.93630000
H      -44.27540000     -34.34840000     -73.08830000
C      -42.59170000     -33.77290000     -71.90490000
H      -42.44970000     -34.73260000     -71.42380000
H      -41.71050000     -33.15360000     -72.02350000
C      -44.47220000     -35.91930000     -69.88120000
H      -43.35730000     -36.03080000     -70.16770000
H      -44.64210000     -36.67430000     -69.19160000
C      -44.86220000     -34.49170000     -69.47900000
C      -45.84180000     -34.33830000     -68.49110000
C      -44.52310000     -33.24340000     -70.09280000
H      -46.30700000     -35.12540000     -67.88770000
C      -45.04610000     -32.17670000     -69.36290000
C      -43.47970000     -32.84850000     -71.04710000
C      -43.35280000     -31.47230000     -71.01610000
S      -46.24700000     -32.64040000     -68.22290000
S      -44.37480000     -30.65000000     -69.78680000
H      -42.65690000     -31.02620000     -71.65660000
