40
Properties=species:S:1:pos:R:3 #=T CELL(abcABC):=T 1.889726e+02=T 90.00000=T Traj:=T positionsangstrom=T Step:=T 0=T Bead:=T pbc="F F F"
C      -46.33140000     -31.65660000     -72.90800000
C      -45.78730000     -32.63150000     -73.73280000
C      -46.40370000     -33.91490000     -73.75800000
C      -47.52900000     -34.14680000     -72.92500000
C      -48.04500000     -33.08800000     -72.14350000
C      -47.39590000     -31.88990000     -72.04190000
H      -45.97120000     -30.65700000     -72.84570000
H      -46.03250000     -34.70270000     -74.34370000
H      -49.05530000     -33.24390000     -71.65120000
H      -47.82210000     -31.10180000     -71.36000000
C      -48.11790000     -35.53410000     -72.76850000
H      -47.77680000     -36.27660000     -73.45780000
H      -49.19830000     -35.55340000     -72.75820000
C      -44.47830000     -32.43810000     -74.55960000
H      -44.48150000     -33.09840000     -75.42870000
H      -44.52530000     -31.41070000     -75.02320000
S      -47.60590000     -36.15650000     -71.01960000
S      -42.89620000     -32.58780000     -73.64950000
C      -45.74510000     -36.27640000     -71.04810000
H      -45.48680000     -37.30650000     -71.24270000
H      -45.43630000     -35.74860000     -71.95220000
C      -43.03870000     -34.31620000     -72.75480000
H      -42.46190000     -35.00340000     -73.34350000
H      -44.12120000     -34.64660000     -72.77070000
C      -42.43710000     -34.25410000     -71.32790000
H      -42.72760000     -35.24170000     -70.88160000
H      -41.30550000     -34.20330000     -71.31010000
C      -45.22040000     -35.82370000     -69.72400000
H      -44.16570000     -36.28570000     -69.55680000
H      -45.81930000     -36.39300000     -68.98700000
C      -45.40750000     -34.30860000     -69.51300000
C      -46.43920000     -33.82020000     -68.74390000
C      -44.46500000     -33.31260000     -69.89990000
H      -47.43830000     -34.32280000     -68.48890000
C      -44.82890000     -32.04890000     -69.45590000
C      -43.15470000     -33.23950000     -70.52530000
C      -42.64770000     -31.96630000     -70.49480000
S      -46.34540000     -32.07930000     -68.56910000
S      -43.65490000     -30.77760000     -69.70230000
H      -41.64110000     -31.69160000     -70.82410000
