40
Properties=species:S:1:pos:R:3 #=T CELL(abcABC):=T 1.889726e+02=T 90.00000=T Traj:=T positionsangstrom=T Step:=T 0=T Bead:=T pbc="F F F"
C      -43.19850000     -32.10370000     -71.44170000
C      -43.06380000     -32.71560000     -70.19480000
C      -43.93600000     -32.40620000     -69.15530000
C      -44.99770000     -31.41810000     -69.30690000
C      -45.03690000     -30.69950000     -70.55630000
C      -44.17020000     -31.11690000     -71.58160000
H      -42.73740000     -32.44760000     -72.35200000
H      -43.75200000     -32.96610000     -68.15400000
H      -45.90550000     -29.99460000     -70.70530000
H      -44.15220000     -30.39610000     -72.41860000
C      -45.99800000     -31.41500000     -68.17360000
H      -46.24870000     -30.36430000     -67.86030000
H      -45.61250000     -31.92290000     -67.23540000
C      -42.01410000     -33.74070000     -70.01500000
H      -41.09210000     -33.35130000     -70.44590000
H      -41.77400000     -34.01220000     -68.97750000
S      -47.59190000     -32.24120000     -68.55910000
S      -42.43580000     -35.26940000     -71.00570000
C      -46.99250000     -33.93730000     -69.18100000
H      -45.96280000     -33.77040000     -69.55750000
H      -47.06250000     -34.62300000     -68.35690000
C      -44.03780000     -35.79930000     -70.31450000
H      -44.57230000     -34.90030000     -69.91160000
H      -43.90640000     -36.54990000     -69.52610000
C      -44.98250000     -36.37340000     -71.43430000
H      -44.59830000     -37.29370000     -71.85940000
H      -45.86150000     -36.70680000     -70.97030000
C      -47.82780000     -34.45370000     -70.37330000
H      -48.87470000     -34.29930000     -70.17610000
H      -47.68690000     -35.50940000     -70.50960000
C      -47.43450000     -33.75850000     -71.64980000
C      -47.96330000     -32.59220000     -72.20410000
C      -46.27750000     -34.15600000     -72.47750000
H      -48.75520000     -32.07190000     -71.82210000
C      -46.04510000     -33.33330000     -73.60280000
C      -45.27590000     -35.21680000     -72.46050000
C      -44.47280000     -35.23700000     -73.54650000
S      -47.18750000     -32.05090000     -73.70850000
S      -44.79390000     -33.91980000     -74.65040000
H      -43.63720000     -35.86130000     -73.82380000
