40
Properties=species:S:1:pos:R:3 #=T CELL(abcABC):=T 1.889726e+02=T 90.00000=T Traj:=T positionsangstrom=T Step:=T 0=T Bead:=T pbc="F F F"
C      -43.22640000     -32.14520000     -71.87940000
C      -42.99050000     -32.75500000     -70.66670000
C      -43.79280000     -32.22780000     -69.59500000
C      -44.92610000     -31.42070000     -69.80000000
C      -45.21720000     -30.87180000     -71.09940000
C      -44.26050000     -31.22730000     -72.08390000
H      -42.62400000     -32.44660000     -72.75300000
H      -43.73650000     -32.67830000     -68.58620000
H      -46.03630000     -30.11580000     -71.27550000
H      -44.37850000     -30.81230000     -73.08300000
C      -45.81810000     -31.09390000     -68.62360000
H      -46.31840000     -30.08800000     -68.64980000
H      -45.24950000     -31.12720000     -67.72100000
C      -41.86210000     -33.78790000     -70.45040000
H      -41.02190000     -33.43270000     -70.97820000
H      -41.62030000     -33.84840000     -69.38580000
S      -47.25750000     -32.33570000     -68.25960000
S      -42.26400000     -35.43450000     -71.18540000
C      -46.64050000     -33.90360000     -68.87900000
H      -45.79690000     -33.57620000     -69.44940000
H      -46.25170000     -34.65040000     -68.13010000
C      -43.83740000     -35.78220000     -70.30400000
H      -44.02340000     -34.86470000     -69.66860000
H      -43.70500000     -36.58240000     -69.58920000
C      -44.89400000     -36.13980000     -71.37360000
H      -44.62110000     -37.08420000     -71.89130000
H      -45.85800000     -36.34430000     -71.01070000
C      -47.65730000     -34.51450000     -69.98540000
H      -48.67790000     -34.17540000     -69.68170000
H      -47.66720000     -35.59810000     -69.96080000
C      -47.39830000     -33.95410000     -71.32990000
C      -48.27920000     -32.98490000     -71.79530000
C      -46.29940000     -34.15620000     -72.24210000
H      -49.04230000     -32.41050000     -71.29720000
C      -46.32500000     -33.29400000     -73.33020000
C      -45.16400000     -35.06170000     -72.36680000
C      -44.35340000     -34.78040000     -73.48820000
S      -47.76830000     -32.31200000     -73.30550000
S      -45.07720000     -33.59500000     -74.49750000
H      -43.50500000     -35.40770000     -73.70840000
