40
Properties=species:S:1:pos:R:3 #=T CELL(abcABC):=T 1.889726e+02=T 90.00000=T Traj:=T positionsangstrom=T Step:=T 0=T Bead:=T pbc="F F F"
C      -42.98450000     -32.08470000     -71.68950000
C      -42.88810000     -32.78480000     -70.46850000
C      -43.83550000     -32.58550000     -69.46660000
C      -44.94250000     -31.72510000     -69.66230000
C      -44.97450000     -31.03590000     -70.86000000
C      -44.04990000     -31.24260000     -71.90860000
H      -42.23730000     -32.17300000     -72.48530000
H      -43.73620000     -33.15830000     -68.50730000
H      -45.70590000     -30.19320000     -70.87840000
H      -44.22280000     -30.76970000     -72.88050000
C      -45.88090000     -31.49360000     -68.54680000
H      -46.00140000     -30.41000000     -68.39200000
H      -45.45340000     -31.82660000     -67.63270000
C      -41.81060000     -33.83410000     -70.23870000
H      -40.80720000     -33.58930000     -70.63720000
H      -41.69250000     -33.95400000     -69.10280000
S      -47.50500000     -32.20030000     -68.73010000
S      -42.21650000     -35.42100000     -71.14750000
C      -47.10800000     -34.00690000     -68.86680000
H      -46.04280000     -34.08650000     -69.01220000
H      -47.47920000     -34.61640000     -68.09300000
C      -43.95340000     -35.84690000     -70.44280000
H      -44.35180000     -34.98470000     -69.85220000
H      -43.78610000     -36.69090000     -69.71190000
C      -44.98520000     -36.29770000     -71.49850000
H      -44.62470000     -37.22320000     -72.00480000
H      -45.86400000     -36.63590000     -70.86020000
C      -47.76940000     -34.65350000     -70.16250000
H      -48.89550000     -34.81250000     -70.07020000
H      -47.31450000     -35.66650000     -70.27670000
C      -47.44130000     -33.78920000     -71.38980000
C      -48.04100000     -32.61680000     -71.69610000
C      -46.34980000     -34.14630000     -72.29850000
H      -48.92750000     -32.22750000     -71.15350000
C      -46.29570000     -33.19260000     -73.30350000
C      -45.35880000     -35.17990000     -72.44800000
C      -44.58610000     -35.01130000     -73.57880000
S      -47.55600000     -31.93690000     -73.25180000
S      -44.95090000     -33.48120000     -74.45220000
H      -43.67170000     -35.52000000     -73.78920000
