40
Properties=species:S:1:pos:R:3 #=T CELL(abcABC):=T 1.889726e+02=T 90.00000=T Traj:=T positionsangstrom=T Step:=T 0=T Bead:=T pbc="F F F"
C      -43.52720000     -31.61320000     -72.00380000
C      -43.04340000     -32.22720000     -70.88370000
C      -43.77870000     -32.08130000     -69.62900000
C      -44.95110000     -31.37010000     -69.57350000
C      -45.36710000     -30.68000000     -70.80500000
C      -44.68970000     -30.85900000     -71.98640000
H      -43.06960000     -31.90150000     -72.95320000
H      -43.24550000     -32.43450000     -68.78750000
H      -46.32540000     -30.15360000     -70.79630000
H      -45.04910000     -30.30580000     -72.91790000
C      -45.74220000     -31.21390000     -68.32920000
H      -46.15070000     -30.24540000     -68.24910000
H      -44.96380000     -31.42420000     -67.57370000
C      -41.79400000     -33.01010000     -70.94170000
H      -41.05480000     -32.59150000     -71.71400000
H      -41.30360000     -33.11290000     -69.99670000
S      -47.19670000     -32.36990000     -68.16010000
S      -42.04520000     -34.69200000     -71.53430000
C      -46.57100000     -34.03350000     -68.74100000
H      -45.52430000     -33.83840000     -69.11660000
H      -46.50700000     -34.59540000     -67.79300000
C      -43.26690000     -35.40570000     -70.44690000
H      -43.70730000     -34.75720000     -69.75660000
H      -42.75120000     -36.17170000     -69.89490000
C      -44.38710000     -36.11690000     -71.16830000
H      -44.06340000     -36.97620000     -71.68640000
H      -45.11280000     -36.46100000     -70.50460000
C      -47.31190000     -34.84910000     -69.83320000
H      -48.34770000     -35.03250000     -69.57690000
H      -46.81020000     -35.87480000     -69.84190000
C      -47.33380000     -34.28820000     -71.17010000
C      -48.20200000     -33.24170000     -71.49670000
C      -46.30260000     -34.54570000     -72.20210000
H      -48.99180000     -32.89630000     -70.82480000
C      -46.52760000     -33.74940000     -73.32760000
C      -45.12500000     -35.32590000     -72.34720000
C      -44.58430000     -35.18100000     -73.63100000
S      -47.97640000     -32.76350000     -73.19610000
S      -45.42330000     -34.00020000     -74.67600000
H      -43.62180000     -35.43390000     -73.95280000
