40
Properties=species:S:1:pos:R:3 #=T CELL(abcABC):=T 1.889726e+02=T 90.00000=T Traj:=T positionsangstrom=T Step:=T 0=T Bead:=T pbc="F F F"
C      -43.30980000     -32.00640000     -71.90040000
C      -42.83600000     -32.49660000     -70.63950000
C      -43.50450000     -32.11100000     -69.49290000
C      -44.79470000     -31.37910000     -69.62180000
C      -45.26270000     -30.97710000     -70.86630000
C      -44.42850000     -31.20410000     -72.01100000
H      -42.66300000     -32.21160000     -72.74660000
H      -43.35170000     -32.57140000     -68.52660000
H      -46.25110000     -30.52660000     -70.97220000
H      -44.60010000     -30.68460000     -72.97790000
C      -45.62050000     -31.27940000     -68.36160000
H      -45.88770000     -30.28930000     -68.10770000
H      -45.01940000     -31.67200000     -67.48590000
C      -41.61290000     -33.46260000     -70.50010000
H      -40.63070000     -33.22120000     -71.02300000
H      -41.37300000     -33.44870000     -69.44070000
S      -47.30200000     -32.17300000     -68.47460000
S      -41.95360000     -35.16060000     -71.26860000
C      -46.78940000     -33.91350000     -68.88500000
H      -45.73760000     -33.91640000     -69.23710000
H      -46.69440000     -34.47630000     -67.97910000
C      -43.56000000     -35.46910000     -70.37930000
H      -43.98520000     -34.63590000     -69.80170000
H      -43.37060000     -36.34360000     -69.63170000
C      -44.64010000     -36.07460000     -71.22210000
H      -44.32840000     -36.91430000     -71.87390000
H      -45.49960000     -36.42850000     -70.60580000
C      -47.65720000     -34.58920000     -69.91320000
H      -48.69000000     -34.74580000     -69.67620000
H      -47.31330000     -35.67350000     -69.87960000
C      -47.44100000     -33.97310000     -71.23870000
C      -48.22550000     -32.96650000     -71.72590000
C      -46.39820000     -34.30090000     -72.24990000
H      -49.02100000     -32.50060000     -71.14430000
C      -46.60730000     -33.58150000     -73.39280000
C      -45.24040000     -35.10360000     -72.30900000
C      -44.58190000     -35.00290000     -73.53630000
S      -47.83890000     -32.49490000     -73.31310000
S      -45.49610000     -33.90540000     -74.63820000
H      -43.74680000     -35.67930000     -73.97720000
