40
Properties=species:S:1:pos:R:3 #=T CELL(abcABC):=T 1.889726e+02=T 90.00000=T Traj:=T positionsangstrom=T Step:=T 0=T Bead:=T pbc="F F F"
C      -44.98190000     -30.55710000     -72.21340000
C      -44.29730000     -30.87960000     -71.07400000
C      -45.01900000     -31.34090000     -69.96240000
C      -46.36810000     -31.59980000     -70.08770000
C      -47.09560000     -31.24120000     -71.31370000
C      -46.34940000     -30.65930000     -72.29990000
H      -44.40220000     -30.19660000     -73.06890000
H      -44.54390000     -31.66230000     -69.05800000
H      -48.15850000     -31.29950000     -71.33590000
H      -46.80540000     -30.32740000     -73.22110000
C      -47.10020000     -32.11080000     -68.86920000
H      -48.09800000     -31.68540000     -68.82210000
H      -46.65980000     -31.79370000     -67.92590000
C      -42.81530000     -30.75210000     -70.99100000
H      -42.45500000     -29.90840000     -71.56380000
H      -42.46010000     -30.49340000     -69.92400000
S      -47.41360000     -33.92550000     -68.63030000
S      -41.71620000     -32.12170000     -71.67380000
C      -45.71850000     -34.72620000     -68.68570000
H      -45.06900000     -33.91870000     -69.13390000
H      -45.31870000     -34.87710000     -67.65060000
C      -42.22940000     -33.57290000     -70.58480000
H      -42.93770000     -33.23490000     -69.86030000
H      -41.35110000     -33.76140000     -69.93500000
C      -42.76980000     -34.85180000     -71.26700000
H      -42.05610000     -35.49010000     -71.78850000
H      -43.05640000     -35.51680000     -70.41040000
C      -45.60720000     -35.90730000     -69.54780000
H      -46.18980000     -36.69390000     -69.09500000
H      -44.57650000     -36.36200000     -69.52390000
C      -46.15110000     -35.54800000     -70.81920000
C      -47.47940000     -35.82830000     -71.16320000
C      -45.41340000     -34.87880000     -71.88560000
H      -48.19750000     -36.22160000     -70.46410000
C      -46.22900000     -34.60100000     -72.96380000
C      -43.99970000     -34.51970000     -72.15710000
C      -43.80900000     -33.92780000     -73.37510000
S      -47.86990000     -35.09080000     -72.69670000
S      -45.33880000     -33.76850000     -74.26910000
H      -42.85550000     -33.65630000     -73.72090000
