40
Properties=species:S:1:pos:R:3 #=T CELL(abcABC):=T 1.889726e+02=T 90.00000=T Traj:=T positionsangstrom=T Step:=T 0=T Bead:=T pbc="F F F"
C      -47.19030000     -32.18390000     -72.57850000
C      -46.46890000     -32.86810000     -73.60230000
C      -46.19660000     -34.22050000     -73.53360000
C      -46.53160000     -34.94090000     -72.38270000
C      -47.32390000     -34.30800000     -71.39600000
C      -47.55180000     -32.93230000     -71.51700000
H      -47.34380000     -31.09350000     -72.57430000
H      -45.79600000     -34.68530000     -74.43930000
H      -47.57990000     -34.85300000     -70.43260000
H      -48.19440000     -32.53830000     -70.69950000
C      -46.37880000     -36.56700000     -72.35390000
H      -46.07600000     -37.01870000     -73.31310000
H      -47.27740000     -37.02890000     -72.04560000
C      -45.86480000     -32.11480000     -74.77210000
H      -45.74650000     -32.80570000     -75.67700000
H      -46.62060000     -31.36480000     -75.09040000
S      -45.18720000     -37.02640000     -70.95740000
S      -44.27100000     -31.31550000     -74.34740000
C      -43.77080000     -36.05290000     -71.38150000
H      -42.86980000     -36.61640000     -71.67930000
H      -44.06040000     -35.38810000     -72.19820000
C      -43.27200000     -32.60410000     -73.51220000
H      -42.30100000     -32.57690000     -73.92350000
H      -43.75060000     -33.65160000     -73.76580000
C      -43.05760000     -32.19700000     -72.02210000
H      -42.37330000     -32.88120000     -71.56290000
H      -42.52640000     -31.28120000     -72.00360000
C      -43.24800000     -35.17730000     -70.20850000
H      -42.30930000     -34.64260000     -70.40000000
H      -42.85670000     -35.87610000     -69.46530000
C      -44.23800000     -34.22350000     -69.54280000
C      -44.96350000     -34.59280000     -68.43030000
C      -44.60820000     -32.92660000     -69.98940000
H      -45.00660000     -35.53000000     -67.84430000
C      -45.60610000     -32.35400000     -69.22220000
C      -44.17930000     -31.96260000     -71.07860000
C      -44.78840000     -30.72420000     -70.93900000
S      -46.18500000     -33.45920000     -67.92200000
S      -45.95230000     -30.66970000     -69.58560000
H      -44.62800000     -29.83600000     -71.54360000
