40
Properties=species:S:1:pos:R:3 #=T CELL(abcABC):=T 1.889726e+02=T 90.00000=T Traj:=T positionsangstrom=T Step:=T 0=T Bead:=T pbc="F F F"
C      -44.79220000     -30.55240000     -72.15680000
C      -44.10710000     -31.03520000     -70.96490000
C      -44.85050000     -31.51920000     -69.89720000
C      -46.24280000     -31.53240000     -70.03530000
C      -46.90490000     -31.04870000     -71.21910000
C      -46.16910000     -30.64600000     -72.29600000
H      -44.19030000     -30.10940000     -72.96730000
H      -44.38180000     -31.66000000     -68.89860000
H      -47.97990000     -31.15570000     -71.18270000
H      -46.61630000     -30.36770000     -73.22550000
C      -47.04070000     -31.94210000     -68.88150000
H      -47.97310000     -31.32850000     -68.89500000
H      -46.46630000     -31.60720000     -67.97420000
C      -42.65410000     -30.89230000     -70.82650000
H      -42.23540000     -29.99490000     -71.27330000
H      -42.34400000     -30.76450000     -69.80280000
S      -47.41000000     -33.71310000     -68.80500000
S      -41.71770000     -32.27810000     -71.61670000
C      -45.78170000     -34.61550000     -68.56940000
H      -45.09440000     -33.85870000     -68.95880000
H      -45.53560000     -34.74300000     -67.53690000
C      -42.21270000     -33.70980000     -70.57250000
H      -42.89290000     -33.47090000     -69.70720000
H      -41.20760000     -34.04620000     -70.16870000
C      -42.82630000     -34.92010000     -71.37120000
H      -41.96940000     -35.35640000     -71.84000000
H      -43.19710000     -35.59280000     -70.60390000
C      -45.70950000     -35.87360000     -69.47250000
H      -46.28680000     -36.69980000     -69.02690000
H      -44.68850000     -36.31120000     -69.44680000
C      -46.22670000     -35.50090000     -70.83230000
C      -47.57210000     -35.73770000     -71.20370000
C      -45.46160000     -34.89810000     -71.89220000
H      -48.26490000     -36.08340000     -70.49490000
C      -46.31210000     -34.66550000     -72.93530000
C      -44.05150000     -34.65090000     -72.28160000
C      -43.98180000     -33.92980000     -73.45040000
S      -47.93200000     -35.02640000     -72.70800000
S      -45.50720000     -33.83410000     -74.30970000
H      -42.98600000     -33.69650000     -73.90300000
