40
Properties=species:S:1:pos:R:3 #=T CELL(abcABC):=T 1.889726e+02=T 90.00000=T Traj:=T positionsangstrom=T Step:=T 0=T Bead:=T pbc="F F F"
C      -46.28890000     -31.07320000     -72.77790000
C      -45.68710000     -30.65460000     -71.61700000
C      -46.23630000     -31.07090000     -70.35120000
C      -47.43610000     -31.80870000     -70.29970000
C      -47.98210000     -32.21810000     -71.53040000
C      -47.38930000     -31.95220000     -72.74110000
H      -45.81440000     -30.84940000     -73.78540000
H      -45.71170000     -30.74000000     -69.43930000
H      -48.87300000     -32.81290000     -71.45500000
H      -47.91590000     -32.24350000     -73.61000000
C      -47.98190000     -32.16700000     -68.97410000
H      -49.05450000     -32.15560000     -68.90390000
H      -47.56570000     -31.58200000     -68.20420000
C      -44.38790000     -29.88930000     -71.60700000
H      -44.21340000     -29.12980000     -72.39250000
H      -44.26260000     -29.39180000     -70.63250000
S      -47.48220000     -34.03240000     -68.63860000
S      -42.79610000     -31.00450000     -71.70870000
C      -45.70630000     -33.90540000     -68.45520000
H      -45.35920000     -32.99970000     -68.92120000
H      -45.32840000     -33.84680000     -67.41300000
C      -42.97120000     -32.22930000     -70.39980000
H      -43.99360000     -32.17920000     -70.03790000
H      -42.44980000     -31.88870000     -69.45800000
C      -42.43270000     -33.67860000     -70.72820000
H      -41.33350000     -33.61250000     -70.90150000
H      -42.61050000     -34.27750000     -69.81160000
C      -45.01790000     -35.18890000     -68.99070000
H      -45.30320000     -35.98960000     -68.34630000
H      -43.92440000     -35.06220000     -68.78850000
C      -45.25380000     -35.41630000     -70.49840000
C      -46.45040000     -35.98120000     -70.92780000
C      -44.48320000     -34.92800000     -71.60960000
H      -47.14050000     -36.50470000     -70.29830000
C      -44.98500000     -35.24450000     -72.84000000
C      -43.14810000     -34.34880000     -71.83860000
C      -42.85520000     -34.05780000     -73.14450000
S      -46.52930000     -35.98280000     -72.72850000
S      -44.07310000     -34.77330000     -74.18460000
H      -41.86520000     -33.76610000     -73.56690000
