40
Properties=species:S:1:pos:R:3 #=T CELL(abcABC):=T 1.889726e+02=T 90.00000=T Traj:=T positionsangstrom=T Step:=T 0=T Bead:=T pbc="F F F"
C      -45.18540000     -31.32500000     -72.34790000
C      -44.56280000     -30.84500000     -71.14480000
C      -45.28690000     -31.08270000     -69.94310000
C      -46.53160000     -31.72340000     -69.87800000
C      -47.10840000     -32.08430000     -71.10940000
C      -46.45290000     -31.92920000     -72.33680000
H      -44.65710000     -31.30290000     -73.29960000
H      -44.78870000     -30.89250000     -68.92360000
H      -48.12910000     -32.57610000     -71.00610000
H      -46.93660000     -32.38440000     -73.17650000
C      -47.25140000     -31.99640000     -68.56910000
H      -48.24180000     -31.60690000     -68.60340000
H      -46.76150000     -31.58460000     -67.65380000
C      -43.17980000     -30.25970000     -71.28030000
H      -43.07090000     -29.67160000     -72.16010000
H      -42.97220000     -29.54380000     -70.48740000
S      -47.51370000     -33.85710000     -68.43910000
S      -41.81080000     -31.54630000     -71.24900000
C      -45.75090000     -34.38380000     -68.64760000
H      -45.13530000     -33.61150000     -69.09200000
H      -45.27930000     -34.49010000     -67.67210000
C      -42.61630000     -32.95620000     -70.41520000
H      -43.57990000     -32.70170000     -70.00980000
H      -42.11600000     -33.11380000     -69.50020000
C      -42.73210000     -34.19580000     -71.24820000
H      -41.79190000     -34.48480000     -71.69380000
H      -42.89130000     -35.00190000     -70.50910000
C      -45.51110000     -35.65670000     -69.51980000
H      -46.08440000     -36.54770000     -69.06970000
H      -44.44960000     -35.95490000     -69.46990000
C      -45.94790000     -35.38500000     -70.88010000
C      -47.17550000     -35.80840000     -71.25970000
C      -45.21950000     -34.79970000     -71.99290000
H      -48.01620000     -36.05300000     -70.61600000
C      -45.97320000     -34.83830000     -73.19570000
C      -43.87460000     -34.29870000     -72.27090000
C      -43.72140000     -33.83550000     -73.51670000
S      -47.57140000     -35.39030000     -72.89110000
S      -45.12150000     -34.21490000     -74.56780000
H      -42.77750000     -33.50850000     -73.94990000
