40
Properties=species:S:1:pos:R:3 #=T CELL(abcABC):=T 1.889726e+02=T 90.00000=T Traj:=T positionsangstrom=T Step:=T 0=T Bead:=T pbc="F F F"
C      -46.14230000     -31.13630000     -72.68650000
C      -45.53570000     -30.72910000     -71.45190000
C      -46.15040000     -31.05800000     -70.29220000
C      -47.40370000     -31.74910000     -70.24240000
C      -47.97930000     -32.11680000     -71.48000000
C      -47.40070000     -31.75880000     -72.67050000
H      -45.64320000     -30.84070000     -73.61640000
H      -45.68510000     -30.82970000     -69.29670000
H      -48.96690000     -32.59630000     -71.49360000
H      -47.88020000     -32.02270000     -73.60730000
C      -47.96320000     -32.21230000     -68.96140000
H      -49.09240000     -32.34960000     -69.04740000
H      -47.71950000     -31.58210000     -68.06110000
C      -44.20840000     -30.03190000     -71.45560000
H      -44.18330000     -29.32850000     -72.33700000
H      -44.09060000     -29.52240000     -70.52950000
S      -47.53930000     -34.01700000     -68.56530000
S      -42.83140000     -31.19010000     -71.78070000
C      -45.70540000     -34.01650000     -68.40670000
H      -45.44160000     -33.06360000     -68.90390000
H      -45.42590000     -33.97770000     -67.35740000
C      -42.84380000     -32.33190000     -70.29940000
H      -43.87310000     -32.45040000     -69.97530000
H      -42.16800000     -31.95210000     -69.53550000
C      -42.31690000     -33.67370000     -70.84720000
H      -41.27920000     -33.45140000     -71.22810000
H      -42.17270000     -34.34710000     -69.99750000
C      -44.95960000     -35.13290000     -69.11900000
H      -45.21110000     -36.09930000     -68.68080000
H      -43.91520000     -34.76880000     -68.98740000
C      -45.36320000     -35.24640000     -70.58520000
C      -46.55140000     -35.84820000     -70.95400000
C      -44.49630000     -34.87010000     -71.67920000
H      -47.29980000     -36.18810000     -70.24230000
C      -45.05400000     -35.24850000     -72.88780000
C      -43.17510000     -34.23790000     -71.90020000
C      -42.81200000     -34.18940000     -73.19450000
S      -46.67300000     -35.92520000     -72.72360000
S      -44.09910000     -34.74220000     -74.26110000
H      -41.86640000     -33.74880000     -73.42450000
