40
Properties=species:S:1:pos:R:3 #=T CELL(abcABC):=T 1.889726e+02=T 90.00000=T Traj:=T positionsangstrom=T Step:=T 0=T Bead:=T pbc="F F F"
C      -42.99080000     -35.36220000     -73.84880000
C      -42.39180000     -34.98600000     -72.64310000
C      -42.20940000     -33.61660000     -72.35200000
C      -42.54720000     -32.70380000     -73.30610000
C      -43.13730000     -33.07760000     -74.56290000
C      -43.40850000     -34.41450000     -74.73410000
H      -43.15150000     -36.39570000     -73.96610000
H      -41.62940000     -33.40940000     -71.42160000
H      -43.33300000     -32.40220000     -75.37400000
H      -43.95620000     -34.73870000     -75.66870000
C      -42.34470000     -31.18840000     -73.12190000
H      -41.86450000     -30.84490000     -74.03470000
H      -41.60060000     -30.93860000     -72.35280000
C      -41.96850000     -35.98720000     -71.64480000
H      -41.75790000     -36.97350000     -72.06180000
H      -40.98420000     -35.58630000     -71.39220000
S      -43.96140000     -30.26340000     -72.95180000
S      -42.98180000     -36.16860000     -70.17520000
C      -44.88530000     -31.07180000     -71.62110000
H      -44.19930000     -31.43860000     -70.88300000
H      -45.47020000     -30.33960000     -71.09860000
C      -44.71290000     -35.56290000     -70.47690000
H      -45.34540000     -36.36400000     -70.13090000
H      -44.99330000     -35.48600000     -71.51840000
C      -44.99070000     -34.28890000     -69.64180000
H      -44.39790000     -34.38620000     -68.75570000
H      -44.61970000     -33.45940000     -70.29990000
C      -45.78310000     -32.22490000     -72.17880000
H      -45.22560000     -33.14930000     -72.16170000
H      -45.96510000     -32.00660000     -73.25720000
C      -47.10580000     -32.36200000     -71.42600000
C      -48.20140000     -31.65360000     -71.72570000
C      -47.26220000     -33.25640000     -70.24070000
H      -48.33670000     -30.88940000     -72.48860000
C      -48.58340000     -33.20350000     -69.79270000
C      -46.43750000     -34.00740000     -69.32800000
C      -47.16580000     -34.31840000     -68.16750000
S      -49.59300000     -32.10540000     -70.69500000
S      -48.90620000     -33.99340000     -68.24740000
H      -46.68470000     -34.95260000     -67.42760000
