40
Properties=species:S:1:pos:R:3 #=T CELL(abcABC):=T 1.889726e+02=T 90.00000=T Traj:=T positionsangstrom=T Step:=T 0=T Bead:=T pbc="F F F"
C      -46.49990000     -31.45290000     -72.82590000
C      -46.14210000     -30.93060000     -71.57240000
C      -46.85780000     -31.38100000     -70.45800000
C      -47.83700000     -32.40660000     -70.63970000
C      -48.03140000     -33.08870000     -71.82760000
C      -47.39360000     -32.53430000     -72.91890000
H      -46.05990000     -31.00810000     -73.74880000
H      -46.73860000     -31.04640000     -69.42240000
H      -48.72460000     -33.97560000     -71.89820000
H      -47.53880000     -32.83610000     -73.98960000
C      -48.52980000     -32.86670000     -69.35940000
H      -49.50610000     -33.22840000     -69.67680000
H      -48.49370000     -32.00740000     -68.61650000
C      -45.13170000     -29.80600000     -71.56290000
H      -45.25870000     -28.99090000     -72.28280000
H      -45.03090000     -29.35610000     -70.55540000
S      -47.66660000     -34.36340000     -68.70930000
S      -43.42480000     -30.50870000     -71.90480000
C      -45.96690000     -33.72090000     -68.35600000
H      -45.95260000     -32.75850000     -68.90680000
H      -45.97590000     -33.59260000     -67.23940000
C      -43.09600000     -31.47920000     -70.40050000
H      -44.08380000     -31.58610000     -69.93080000
H      -42.49510000     -31.01750000     -69.64200000
C      -42.33790000     -32.78340000     -70.68670000
H      -41.39700000     -32.57380000     -71.07960000
H      -42.18460000     -33.26820000     -69.73190000
C      -44.76890000     -34.65820000     -68.90880000
H      -44.72560000     -35.53290000     -68.20560000
H      -43.81920000     -34.16100000     -68.90010000
C      -44.99020000     -35.08490000     -70.37130000
C      -45.95020000     -36.01250000     -70.78760000
C      -44.13350000     -34.72220000     -71.47180000
H      -46.62190000     -36.53250000     -70.13110000
C      -44.53130000     -35.19200000     -72.68820000
C      -43.03500000     -33.75690000     -71.63180000
C      -42.56650000     -33.68010000     -72.93590000
S      -45.83540000     -36.33550000     -72.55500000
S      -43.41660000     -34.76550000     -74.02330000
H      -42.02710000     -32.87330000     -73.31040000
