40
Properties=species:S:1:pos:R:3 #=T CELL(abcABC):=T 1.889726e+02=T 90.00000=T Traj:=T positionsangstrom=T Step:=T 0=T Bead:=T pbc="F F F"
C      -46.94900000     -33.13930000     -73.49460000
C      -45.64130000     -33.44770000     -73.71160000
C      -45.11860000     -34.61190000     -73.17460000
C      -45.79960000     -35.34480000     -72.18850000
C      -47.16050000     -34.98780000     -71.87260000
C      -47.76660000     -33.88870000     -72.56510000
H      -47.29250000     -32.07690000     -73.87070000
H      -44.09300000     -34.85920000     -73.36900000
H      -47.77890000     -35.56450000     -71.16180000
H      -48.81030000     -33.60560000     -72.41030000
C      -45.20510000     -36.55960000     -71.58240000
H      -45.39150000     -37.42310000     -72.20630000
H      -45.68640000     -36.75240000     -70.63750000
C      -44.72010000     -32.66520000     -74.56420000
H      -43.84240000     -33.17860000     -74.96750000
H      -45.29900000     -32.19220000     -75.28410000
S      -43.39680000     -36.58720000     -71.22870000
S      -43.96620000     -31.14150000     -73.83030000
C      -42.88800000     -34.90670000     -70.47770000
H      -41.77100000     -34.99360000     -70.42770000
H      -43.18990000     -34.07010000     -71.10570000
C      -42.90820000     -31.94700000     -72.51000000
H      -41.83780000     -31.72350000     -72.76950000
H      -43.04040000     -33.04280000     -72.53710000
C      -43.28410000     -31.43030000     -71.15150000
H      -42.64670000     -32.10020000     -70.43080000
H      -42.96500000     -30.37330000     -71.14940000
C      -43.47480000     -34.56560000     -69.11090000
H      -42.89780000     -33.77860000     -68.63680000
H      -43.62150000     -35.42780000     -68.45810000
C      -44.95120000     -33.95760000     -69.28960000
C      -45.95940000     -34.52160000     -68.54590000
C      -45.35590000     -32.74320000     -70.08650000
H      -46.01580000     -35.48240000     -68.05390000
C      -46.73310000     -32.56200000     -69.81660000
C      -44.77280000     -31.67610000     -70.79950000
C      -45.72560000     -30.63210000     -70.99070000
S      -47.48650000     -33.63780000     -68.72970000
S      -47.23490000     -30.97470000     -70.28310000
H      -45.40830000     -29.55760000     -71.26610000
