40
Properties=species:S:1:pos:R:3 #=T CELL(abcABC):=T 1.889726e+02=T 90.00000=T Traj:=T positionsangstrom=T Step:=T 0=T Bead:=T pbc="F F F"
C      -46.48030000     -31.52970000     -72.93060000
C      -46.29320000     -30.78270000     -71.72440000
C      -47.04450000     -31.20800000     -70.58360000
C      -47.95800000     -32.29250000     -70.69850000
C      -48.18600000     -32.94800000     -71.90720000
C      -47.45560000     -32.53360000     -73.00840000
H      -45.86930000     -31.35300000     -73.87590000
H      -46.89670000     -30.72250000     -69.59790000
H      -48.85730000     -33.80450000     -72.05500000
H      -47.55120000     -33.23050000     -73.86930000
C      -48.44020000     -32.84240000     -69.40100000
H      -49.47460000     -33.16990000     -69.46200000
H      -48.44930000     -32.19420000     -68.58020000
C      -45.15650000     -29.76830000     -71.66250000
H      -45.18740000     -29.12680000     -72.49860000
H      -45.26650000     -29.04000000     -70.82670000
S      -47.54350000     -34.35790000     -68.70000000
S      -43.64070000     -30.68970000     -71.87050000
C      -45.87160000     -33.67650000     -68.54390000
H      -45.80780000     -32.72290000     -69.06210000
H      -45.71840000     -33.30450000     -67.59620000
C      -43.41830000     -31.51890000     -70.24490000
H      -44.42710000     -31.70910000     -69.88010000
H      -42.82890000     -30.95370000     -69.48410000
C      -42.49900000     -32.78290000     -70.51670000
H      -41.44930000     -32.29710000     -70.60160000
H      -42.17470000     -33.24050000     -69.53840000
C      -44.73450000     -34.73690000     -68.81150000
H      -44.91180000     -35.60910000     -68.09730000
H      -43.73320000     -34.42670000     -68.51240000
C      -44.81620000     -35.14420000     -70.31160000
C      -45.75240000     -36.06330000     -70.77210000
C      -44.03750000     -34.65020000     -71.41330000
H      -46.35300000     -36.60610000     -70.14030000
C      -44.37730000     -35.26180000     -72.63560000
C      -42.90970000     -33.69290000     -71.59350000
C      -42.47430000     -33.76600000     -72.90630000
S      -45.70230000     -36.29910000     -72.50080000
S      -43.41530000     -34.75300000     -74.03170000
H      -41.73820000     -33.07930000     -73.31050000
