40
Properties=species:S:1:pos:R:3 #=T CELL(abcABC):=T 1.889726e+02=T 90.00000=T Traj:=T positionsangstrom=T Step:=T 0=T Bead:=T pbc="F F F"
C      -46.56280000     -32.14100000     -73.35660000
C      -46.51100000     -31.33130000     -72.16760000
C      -47.16160000     -31.76830000     -71.01070000
C      -47.83130000     -32.94650000     -70.92040000
C      -47.87780000     -33.80910000     -72.00180000
C      -47.17600000     -33.44710000     -73.20510000
H      -46.09220000     -31.94310000     -74.24930000
H      -47.09190000     -31.20360000     -70.05830000
H      -48.45470000     -34.78520000     -71.88790000
H      -47.29820000     -34.16150000     -74.02350000
C      -48.49450000     -33.46260000     -69.65820000
H      -49.30590000     -34.16700000     -69.79950000
H      -48.95260000     -32.65470000     -69.05700000
C      -45.71300000     -30.01750000     -72.10240000
H      -45.94260000     -29.33990000     -72.89280000
H      -46.02980000     -29.50640000     -71.22480000
S      -47.34090000     -34.35760000     -68.52050000
S      -43.87250000     -30.13600000     -71.84680000
C      -45.75850000     -33.38730000     -68.47640000
H      -45.66800000     -32.70420000     -69.28070000
H      -45.67120000     -32.80350000     -67.55380000
C      -43.74680000     -31.10670000     -70.26740000
H      -44.77930000     -31.43010000     -70.06950000
H      -43.46440000     -30.45840000     -69.43410000
C      -42.71560000     -32.24460000     -70.52920000
H      -41.83600000     -31.84360000     -70.89030000
H      -42.40930000     -32.71780000     -69.60630000
C      -44.65020000     -34.41040000     -68.71430000
H      -44.71310000     -35.28540000     -68.13110000
H      -43.71870000     -33.76870000     -68.58810000
C      -44.72430000     -34.90680000     -70.21540000
C      -45.46650000     -36.05110000     -70.48770000
C      -44.11000000     -34.36210000     -71.35630000
H      -46.01340000     -36.56600000     -69.77890000
C      -44.29470000     -35.09930000     -72.48600000
C      -43.17040000     -33.27540000     -71.52050000
C      -42.57810000     -33.25050000     -72.74840000
S      -45.42820000     -36.39960000     -72.26500000
S      -43.33840000     -34.48490000     -73.80220000
H      -41.88480000     -32.53510000     -73.15300000
