40
Properties=species:S:1:pos:R:3 #=T CELL(abcABC):=T 1.889726e+02=T 90.00000=T Traj:=T positionsangstrom=T Step:=T 0=T Bead:=T pbc="F F F"
C      -43.03090000     -35.34170000     -73.87150000
C      -42.38270000     -34.97290000     -72.68510000
C      -42.07050000     -33.59950000     -72.44150000
C      -42.52680000     -32.63220000     -73.34110000
C      -43.11740000     -33.05570000     -74.56240000
C      -43.41600000     -34.39380000     -74.80390000
H      -43.08600000     -36.43020000     -74.03240000
H      -41.52490000     -33.27900000     -71.51800000
H      -43.45420000     -32.31850000     -75.21100000
H      -43.88650000     -34.77820000     -75.68310000
C      -42.31790000     -31.18030000     -73.05110000
H      -41.63440000     -30.77160000     -73.81360000
H      -41.92360000     -30.99040000     -72.04750000
C      -41.93620000     -35.98590000     -71.66600000
H      -41.95830000     -36.99640000     -72.10320000
H      -40.96340000     -35.71860000     -71.24160000
S      -43.92350000     -30.15270000     -73.06340000
S      -42.99040000     -36.20130000     -70.11400000
C      -45.01600000     -31.02940000     -71.76290000
H      -44.33290000     -31.28210000     -70.96710000
H      -45.72920000     -30.20970000     -71.34620000
C      -44.63410000     -35.51770000     -70.51450000
H      -45.35410000     -36.33950000     -70.46070000
H      -44.62510000     -35.01850000     -71.50070000
C      -44.98490000     -34.45860000     -69.44070000
H      -44.64900000     -34.64810000     -68.46760000
H      -44.47760000     -33.45060000     -69.71460000
C      -45.88570000     -32.22600000     -72.30730000
H      -45.25940000     -33.11560000     -72.18590000
H      -46.19860000     -32.06620000     -73.36400000
C      -47.19350000     -32.38120000     -71.47330000
C      -48.35780000     -31.76350000     -71.78350000
C      -47.27300000     -33.12020000     -70.16840000
H      -48.60950000     -31.15560000     -72.67620000
C      -48.54340000     -33.04980000     -69.58930000
C      -46.49180000     -34.09820000     -69.44760000
C      -47.17990000     -34.64290000     -68.32350000
S      -49.65960000     -32.12930000     -70.61770000
S      -48.75620000     -33.98090000     -68.12540000
H      -46.66960000     -35.36580000     -67.67930000
