40
Properties=species:S:1:pos:R:3 #=T CELL(abcABC):=T 1.889726e+02=T 90.00000=T Traj:=T positionsangstrom=T Step:=T 0=T Bead:=T pbc="F F F"
C      -46.45140000     -31.84600000     -73.24930000
C      -46.36900000     -31.01190000     -72.14710000
C      -47.02390000     -31.35610000     -70.89630000
C      -47.81530000     -32.51470000     -70.72540000
C      -47.95100000     -33.28840000     -71.88130000
C      -47.24860000     -33.02820000     -73.05080000
H      -45.88370000     -31.85870000     -74.15910000
H      -46.89160000     -30.79570000     -69.97490000
H      -48.69230000     -34.06340000     -71.91730000
H      -47.49620000     -33.59320000     -73.97220000
C      -48.47630000     -32.92110000     -69.44050000
H      -49.47750000     -33.29440000     -69.57330000
H      -48.53670000     -32.06370000     -68.78930000
C      -45.45350000     -29.81200000     -72.23160000
H      -45.47610000     -29.53450000     -73.27630000
H      -45.67470000     -28.93670000     -71.57450000
S      -47.52350000     -34.31480000     -68.66880000
S      -43.69550000     -30.29220000     -71.92670000
C      -45.88740000     -33.62320000     -68.56130000
H      -45.82140000     -32.85040000     -69.27210000
H      -45.73780000     -33.20380000     -67.61980000
C      -43.74610000     -31.31710000     -70.41250000
H      -44.78450000     -31.67940000     -70.28680000
H      -43.54300000     -30.66670000     -69.55620000
C      -42.66570000     -32.43710000     -70.54800000
H      -41.81240000     -31.93090000     -70.93370000
H      -42.44150000     -32.67350000     -69.51320000
C      -44.64310000     -34.58030000     -68.77160000
H      -44.75940000     -35.43030000     -68.00360000
H      -43.68340000     -34.03130000     -68.51930000
C      -44.73390000     -35.20620000     -70.11470000
C      -45.38730000     -36.36010000     -70.45590000
C      -44.02950000     -34.60440000     -71.30270000
H      -46.06570000     -36.95780000     -69.81030000
C      -44.24550000     -35.30520000     -72.43070000
C      -43.18300000     -33.43690000     -71.49650000
C      -42.87330000     -33.28840000     -72.83200000
S      -45.40200000     -36.63250000     -72.24490000
S      -43.50400000     -34.59920000     -73.83680000
H      -42.22750000     -32.53200000     -73.26530000
