40
Properties=species:S:1:pos:R:3 #=T CELL(abcABC):=T 1.889726e+02=T 90.00000=T Traj:=T positionsangstrom=T Step:=T 0=T Bead:=T pbc="F F F"
C      -46.20550000     -32.17600000     -73.14460000
C      -46.26590000     -31.31360000     -72.03430000
C      -47.08530000     -31.64110000     -70.92230000
C      -47.60890000     -32.94940000     -70.84830000
C      -47.53300000     -33.86030000     -71.94450000
C      -46.88820000     -33.40900000     -73.09220000
H      -45.62030000     -31.85740000     -74.00480000
H      -47.06770000     -30.95340000     -70.07370000
H      -48.12890000     -34.72940000     -71.79640000
H      -46.97230000     -33.95360000     -74.03430000
C      -48.42970000     -33.21800000     -69.66180000
H      -49.41610000     -33.66290000     -69.89080000
H      -48.63510000     -32.25890000     -69.17130000
C      -45.60760000     -29.93000000     -72.14130000
H      -45.79360000     -29.59360000     -73.14090000
H      -46.01150000     -29.18930000     -71.41920000
S      -47.61510000     -34.42330000     -68.44770000
S      -43.73760000     -29.99600000     -72.10440000
C      -45.92410000     -33.70110000     -68.17820000
H      -45.96590000     -32.67360000     -68.66630000
H      -45.87870000     -33.56200000     -67.11930000
C      -43.55930000     -31.00500000     -70.54480000
H      -44.54940000     -31.11560000     -70.09600000
H      -43.03350000     -30.41670000     -69.77630000
C      -42.72350000     -32.27570000     -70.62620000
H      -41.58920000     -32.06160000     -70.79110000
H      -42.75730000     -32.76740000     -69.70350000
C      -44.71940000     -34.44840000     -68.66570000
H      -44.50590000     -35.34280000     -67.98240000
H      -43.75680000     -33.99760000     -68.51070000
C      -44.84460000     -34.89750000     -70.17510000
C      -45.63950000     -36.00890000     -70.46930000
C      -44.05970000     -34.39450000     -71.31560000
H      -46.11220000     -36.63770000     -69.85290000
C      -44.39430000     -35.14720000     -72.47080000
C      -43.19410000     -33.29980000     -71.61420000
C      -42.86140000     -33.18550000     -72.94360000
S      -45.38960000     -36.51000000     -72.18750000
S      -43.65200000     -34.53020000     -73.86590000
H      -42.26050000     -32.37550000     -73.35400000
