40
Properties=species:S:1:pos:R:3 #=T CELL(abcABC):=T 1.889726e+02=T 90.00000=T Traj:=T positionsangstrom=T Step:=T 0=T Bead:=T pbc="F F F"
C      -46.68110000     -31.76320000     -73.21960000
C      -46.38820000     -31.02280000     -72.01500000
C      -47.02600000     -31.40590000     -70.85310000
C      -47.83040000     -32.54010000     -70.73640000
C      -48.04450000     -33.30330000     -71.91780000
C      -47.58730000     -32.82480000     -73.18590000
H      -46.34310000     -31.52590000     -74.16750000
H      -46.99430000     -30.71770000     -69.98460000
H      -48.59400000     -34.22890000     -71.95470000
H      -47.65130000     -33.46940000     -74.07580000
C      -48.41960000     -32.83610000     -69.36900000
H      -49.48860000     -33.03360000     -69.30970000
H      -48.21630000     -31.93350000     -68.63380000
C      -45.44070000     -29.82080000     -72.08790000
H      -45.56500000     -29.40160000     -73.07730000
H      -45.73310000     -28.94110000     -71.47900000
S      -47.61230000     -34.31500000     -68.69320000
S      -43.58530000     -30.22600000     -71.92530000
C      -45.84060000     -33.71230000     -68.33640000
H      -45.70930000     -32.62930000     -68.69680000
H      -45.96150000     -33.57160000     -67.17710000
C      -43.42890000     -31.23300000     -70.29520000
H      -44.43020000     -31.47400000     -69.99970000
H      -42.87470000     -30.78830000     -69.46930000
C      -42.62660000     -32.52260000     -70.46760000
H      -41.51810000     -32.40020000     -70.61410000
H      -42.58340000     -33.11590000     -69.48830000
C      -44.77590000     -34.70770000     -68.75890000
H      -44.91020000     -35.62970000     -68.16920000
H      -43.85480000     -34.39390000     -68.39550000
C      -44.86120000     -35.07280000     -70.24090000
C      -45.54150000     -36.20650000     -70.65540000
C      -44.10940000     -34.49130000     -71.34980000
H      -46.06510000     -37.05170000     -70.14530000
C      -44.29640000     -35.25320000     -72.51660000
C      -43.08950000     -33.52460000     -71.53410000
C      -42.64450000     -33.53070000     -72.85330000
S      -45.35780000     -36.59640000     -72.31910000
S      -43.41490000     -34.73330000     -73.85620000
H      -42.08590000     -32.74550000     -73.32190000
