40
Properties=species:S:1:pos:R:3 #=T CELL(abcABC):=T 1.889726e+02=T 90.00000=T Traj:=T positionsangstrom=T Step:=T 0=T Bead:=T pbc="F F F"
C      -46.44290000     -32.24510000     -73.17790000
C      -46.56770000     -31.29260000     -72.12370000
C      -47.22010000     -31.72350000     -70.98180000
C      -47.72420000     -33.06510000     -70.81160000
C      -47.58910000     -33.98030000     -71.92250000
C      -47.02200000     -33.50570000     -73.11110000
H      -46.08410000     -31.81870000     -74.17450000
H      -47.49810000     -31.00800000     -70.17540000
H      -47.86280000     -34.99890000     -71.81750000
H      -46.89670000     -34.19460000     -73.90790000
C      -48.56360000     -33.37380000     -69.57070000
H      -49.40780000     -33.93540000     -69.97700000
H      -48.86740000     -32.48410000     -68.99970000
C      -45.87200000     -29.98470000     -72.20770000
H      -46.14300000     -29.43560000     -73.08620000
H      -46.00590000     -29.37920000     -71.31780000
S      -47.66060000     -34.48790000     -68.39330000
S      -43.94760000     -30.17860000     -72.29130000
C      -46.05060000     -33.50890000     -68.36010000
H      -46.15040000     -32.58740000     -68.93410000
H      -45.97440000     -33.13460000     -67.34190000
C      -43.72980000     -30.96020000     -70.64870000
H      -44.70890000     -31.50180000     -70.47410000
H      -43.66610000     -30.18500000     -69.82720000
C      -42.67550000     -32.09570000     -70.51680000
H      -41.69270000     -31.73360000     -70.75560000
H      -42.72040000     -32.51730000     -69.51230000
C      -44.72080000     -34.36800000     -68.65700000
H      -44.73320000     -35.22130000     -67.98130000
H      -43.91750000     -33.82000000     -68.42780000
C      -44.65770000     -34.87870000     -70.14000000
C      -45.35340000     -36.06020000     -70.47330000
C      -43.96490000     -34.26320000     -71.28400000
H      -46.04080000     -36.65400000     -69.79300000
C      -44.24820000     -35.04800000     -72.41210000
C      -43.08810000     -33.13390000     -71.51690000
C      -42.71720000     -33.06390000     -72.84610000
S      -45.11430000     -36.54320000     -72.15660000
S      -43.35040000     -34.37090000     -73.76050000
H      -42.00520000     -32.38140000     -73.37250000
