40
Properties=species:S:1:pos:R:3 #=T CELL(abcABC):=T 1.889726e+02=T 90.00000=T Traj:=T positionsangstrom=T Step:=T 0=T Bead:=T pbc="F F F"
C      -44.76580000     -30.91350000     -68.96670000
C      -45.85200000     -31.70800000     -68.59540000
C      -47.04230000     -31.68480000     -69.32570000
C      -47.28050000     -30.66640000     -70.22350000
C      -46.20150000     -29.79880000     -70.54030000
C      -44.95000000     -29.92220000     -69.98290000
H      -43.84800000     -30.87690000     -68.41490000
H      -47.82090000     -32.38040000     -69.07750000
H      -46.39650000     -29.03520000     -71.28310000
H      -44.13820000     -29.28490000     -70.31170000
C      -48.56710000     -30.62300000     -70.94400000
H      -48.67440000     -29.92510000     -71.77290000
H      -49.41640000     -30.44460000     -70.26970000
C      -45.69190000     -32.62410000     -67.36660000
H      -44.88070000     -32.28130000     -66.63750000
H      -46.56490000     -32.61750000     -66.80760000
S      -48.88030000     -32.30640000     -71.68890000
S      -45.30440000     -34.34020000     -67.72930000
C      -47.46110000     -32.63790000     -72.80480000
H      -47.77310000     -32.89710000     -73.83780000
H      -46.81910000     -31.74040000     -72.90970000
C      -44.33000000     -34.26960000     -69.30660000
H      -43.14070000     -34.15090000     -69.15090000
H      -44.56660000     -33.36050000     -69.79420000
C      -44.63560000     -35.55690000     -70.09990000
H      -44.31450000     -36.42650000     -69.63200000
H      -45.70150000     -35.65880000     -70.40100000
C      -46.57020000     -33.70330000     -72.19390000
H      -47.08580000     -34.63860000     -72.11010000
H      -46.25020000     -33.37780000     -71.14000000
C      -45.33860000     -33.93690000     -73.04320000
C      -45.20990000     -33.49840000     -74.36800000
C      -44.20120000     -34.80000000     -72.67070000
H      -45.82780000     -32.81250000     -74.91460000
C      -43.31050000     -34.97340000     -73.69140000
C      -43.84730000     -35.56020000     -71.47220000
C      -42.60750000     -36.09110000     -71.62980000
S      -43.81870000     -34.21550000     -75.24360000
S      -42.04530000     -36.01190000     -73.28130000
H      -42.03470000     -36.62470000     -70.86950000
