40
Properties=species:S:1:pos:R:3 #=T CELL(abcABC):=T 1.889726e+02=T 90.00000=T Traj:=T positionsangstrom=T Step:=T 0=T Bead:=T pbc="F F F"
C      -44.51180000     -29.34340000     -69.32630000
C      -43.84750000     -30.53620000     -69.72230000
C      -43.80190000     -30.76390000     -71.10160000
C      -44.50900000     -29.89950000     -72.03360000
C      -45.33860000     -28.84890000     -71.54200000
C      -45.26900000     -28.57070000     -70.19330000
H      -44.33440000     -28.90740000     -68.34350000
H      -43.26300000     -31.61460000     -71.51030000
H      -46.01050000     -28.20370000     -72.05550000
H      -45.87490000     -27.81370000     -69.76750000
C      -44.40240000     -30.30600000     -73.49240000
H      -43.50390000     -29.91460000     -74.05170000
H      -45.25460000     -29.93910000     -74.06800000
C      -43.05400000     -31.31470000     -68.67220000
H      -42.17160000     -30.78450000     -68.23430000
H      -43.63560000     -31.70020000     -67.84160000
S      -44.48730000     -32.17560000     -73.78100000
S      -42.32660000     -32.96520000     -69.24890000
C      -46.24260000     -32.56400000     -73.62130000
H      -46.82800000     -31.81000000     -74.18530000
H      -46.41990000     -33.54970000     -74.10300000
C      -43.91600000     -33.88270000     -69.56640000
H      -44.61790000     -33.06270000     -69.34530000
H      -43.93190000     -34.69550000     -68.83180000
C      -44.00600000     -34.55970000     -70.97290000
H      -44.22820000     -33.76240000     -71.64710000
H      -43.10010000     -35.00320000     -71.29770000
C      -46.66820000     -32.87220000     -72.15060000
H      -47.35360000     -32.07660000     -71.85530000
H      -45.76970000     -32.62310000     -71.52840000
C      -47.20560000     -34.25140000     -71.99790000
C      -48.51910000     -34.68260000     -72.20490000
C      -46.40640000     -35.38200000     -71.48540000
H      -49.35600000     -34.11170000     -72.64440000
C      -47.10030000     -36.56870000     -71.51200000
C      -45.02730000     -35.62790000     -71.06040000
C      -44.75910000     -36.92450000     -70.66350000
S      -48.76590000     -36.38260000     -71.98860000
S      -46.19340000     -37.99060000     -71.00530000
H      -43.79720000     -37.29960000     -70.31000000
