40
Properties=species:S:1:pos:R:3 #=T CELL(abcABC):=T 1.889726e+02=T 90.00000=T Traj:=T positionsangstrom=T Step:=T 0=T Bead:=T pbc="F F F"
C      -46.80060000     -33.38390000     -72.90650000
C      -47.34310000     -32.26130000     -72.24740000
C      -47.84360000     -32.38840000     -70.94980000
C      -47.87740000     -33.64750000     -70.35160000
C      -47.43740000     -34.78570000     -71.06560000
C      -46.99840000     -34.67950000     -72.36880000
H      -46.41890000     -33.35400000     -73.91480000
H      -48.16690000     -31.48060000     -70.43100000
H      -47.69410000     -35.77850000     -70.63740000
H      -46.63460000     -35.50780000     -72.99250000
C      -48.10240000     -33.81510000     -68.85200000
H      -48.86150000     -34.59050000     -68.64960000
H      -48.46410000     -32.88930000     -68.28500000
C      -47.22810000     -30.89630000     -72.94310000
H      -47.28770000     -31.12130000     -73.98530000
H      -48.01250000     -30.23560000     -72.62970000
S      -46.57350000     -34.40420000     -68.00100000
S      -45.55360000     -30.04570000     -72.64570000
C      -45.40660000     -33.20780000     -68.65990000
H      -45.84350000     -32.93720000     -69.59200000
H      -45.31950000     -32.42460000     -67.93660000
C      -45.08430000     -30.61280000     -70.95380000
H      -45.73800000     -31.44110000     -70.64110000
H      -45.10230000     -29.70600000     -70.32260000
C      -43.65690000     -31.26320000     -70.92070000
H      -42.84980000     -30.58170000     -71.01840000
H      -43.55460000     -31.63290000     -69.93290000
C      -43.95680000     -33.86610000     -68.75380000
H      -43.79230000     -34.66970000     -67.98610000
H      -43.17750000     -33.05360000     -68.60610000
C      -43.73510000     -34.47980000     -70.13990000
C      -43.78030000     -35.82740000     -70.29310000
C      -43.67420000     -33.84230000     -71.48250000
H      -43.81420000     -36.51770000     -69.51330000
C      -43.65860000     -34.78540000     -72.52330000
C      -43.58160000     -32.41880000     -71.89640000
C      -43.48290000     -32.35640000     -73.27650000
S      -43.75480000     -36.44810000     -71.94720000
S      -43.53550000     -33.87000000     -74.04180000
H      -43.33130000     -31.48840000     -73.82710000
