40
Properties=species:S:1:pos:R:3 #=T CELL(abcABC):=T 1.889726e+02=T 90.00000=T Traj:=T positionsangstrom=T Step:=T 0=T Bead:=T pbc="F F F"
C      -47.23490000     -33.32250000     -73.23510000
C      -47.80030000     -32.37290000     -72.38340000
C      -48.00930000     -32.78220000     -71.05090000
C      -47.61020000     -34.03530000     -70.56960000
C      -47.09960000     -34.99700000     -71.48330000
C      -46.87360000     -34.56300000     -72.79620000
H      -47.09250000     -32.98340000     -74.27780000
H      -48.32180000     -32.01260000     -70.35190000
H      -46.81680000     -36.00830000     -71.14790000
H      -46.62480000     -35.28960000     -73.58670000
C      -47.80230000     -34.30370000     -69.10690000
H      -48.48040000     -35.11620000     -68.85220000
H      -48.10030000     -33.31010000     -68.69340000
C      -47.75120000     -30.87290000     -72.66110000
H      -48.23560000     -30.55590000     -73.61960000
H      -48.38140000     -30.19570000     -72.01060000
S      -46.27230000     -34.73860000     -68.31900000
S      -46.06940000     -30.18330000     -72.62560000
C      -45.30390000     -33.22930000     -68.44540000
H      -45.74050000     -32.79550000     -69.35590000
H      -45.47890000     -32.49300000     -67.68150000
C      -45.30710000     -30.38200000     -70.92360000
H      -45.94230000     -31.03910000     -70.32360000
H      -45.43050000     -29.45410000     -70.37400000
C      -43.87500000     -30.92270000     -71.00500000
H      -43.28340000     -30.14140000     -71.52510000
H      -43.43410000     -31.03610000     -69.99950000
C      -43.81430000     -33.44620000     -68.63500000
H      -43.41500000     -33.94780000     -67.67240000
H      -43.22500000     -32.53890000     -68.66470000
C      -43.43350000     -34.28720000     -69.93700000
C      -43.43990000     -35.66880000     -70.02880000
C      -43.60030000     -33.65210000     -71.26330000
H      -43.49390000     -36.33650000     -69.18570000
C      -43.46020000     -34.64290000     -72.29690000
C      -43.68810000     -32.23290000     -71.83620000
C      -43.63960000     -32.28100000     -73.21110000
S      -43.39390000     -36.21970000     -71.67100000
S      -43.61580000     -33.91050000     -73.90510000
H      -43.53550000     -31.35170000     -73.85480000
