40
Properties=species:S:1:pos:R:3 #=T CELL(abcABC):=T 1.889726e+02=T 90.00000=T Traj:=T positionsangstrom=T Step:=T 0=T Bead:=T pbc="F F F"
C      -46.91890000     -33.27050000     -73.16250000
C      -47.67190000     -32.46070000     -72.31450000
C      -47.99540000     -32.95580000     -71.02430000
C      -47.57960000     -34.27360000     -70.62180000
C      -46.93810000     -35.05990000     -71.53610000
C      -46.54560000     -34.57680000     -72.82120000
H      -46.44540000     -32.89930000     -74.05710000
H      -48.55560000     -32.25960000     -70.36040000
H      -46.55000000     -36.01590000     -71.10070000
H      -45.80470000     -35.16950000     -73.44380000
C      -47.78830000     -34.75240000     -69.24660000
H      -48.10290000     -35.75040000     -69.22550000
H      -48.66730000     -34.31350000     -68.76430000
C      -47.84900000     -30.96390000     -72.58830000
H      -48.28260000     -30.78060000     -73.49940000
H      -48.35020000     -30.48800000     -71.76360000
S      -46.21620000     -34.81010000     -68.24830000
S      -46.12080000     -30.10610000     -72.79690000
C      -45.40360000     -33.12700000     -68.28180000
H      -46.00110000     -32.66690000     -69.05130000
H      -45.54860000     -32.64330000     -67.29360000
C      -45.45220000     -30.58580000     -71.13670000
H      -45.88330000     -31.58310000     -70.89240000
H      -45.72710000     -29.82770000     -70.43800000
C      -44.01570000     -30.84950000     -71.19850000
H      -43.54520000     -30.01220000     -71.69880000
H      -43.58620000     -30.99010000     -70.19670000
C      -43.87070000     -33.25410000     -68.56940000
H      -43.55080000     -33.88850000     -67.67760000
H      -43.40480000     -32.30150000     -68.51160000
C      -43.63230000     -34.01410000     -69.92250000
C      -43.55290000     -35.36990000     -69.92390000
C      -43.59490000     -33.43030000     -71.25470000
H      -43.55590000     -35.93370000     -69.03830000
C      -43.47340000     -34.46510000     -72.12400000
C      -43.71600000     -32.13240000     -71.96350000
C      -43.70450000     -32.31330000     -73.30600000
S      -43.43510000     -36.10340000     -71.53090000
S      -43.58610000     -34.00770000     -73.90080000
H      -43.73360000     -31.53270000     -74.03510000
