40
Properties=species:S:1:pos:R:3 #=T CELL(abcABC):=T 1.889726e+02=T 90.00000=T Traj:=T positionsangstrom=T Step:=T 0=T Bead:=T pbc="F F F"
C      -45.41270000     -30.05770000     -69.62280000
C      -44.25710000     -30.82890000     -69.88180000
C      -43.61230000     -30.77240000     -71.12280000
C      -44.38350000     -30.21520000     -72.18720000
C      -45.46730000     -29.35480000     -71.89790000
C      -45.99500000     -29.28430000     -70.66540000
H      -45.83100000     -30.14810000     -68.61850000
H      -42.71020000     -31.27020000     -71.22480000
H      -45.94210000     -28.82290000     -72.69960000
H      -46.61040000     -28.40670000     -70.50530000
C      -44.03610000     -30.35710000     -73.66230000
H      -43.18330000     -29.87820000     -73.97420000
H      -44.85660000     -29.98820000     -74.27260000
C      -43.58540000     -31.54540000     -68.73480000
H      -42.96780000     -30.88160000     -68.23860000
H      -44.34530000     -31.81060000     -67.97810000
S      -43.70810000     -32.06550000     -74.34470000
S      -42.54570000     -32.94690000     -69.24010000
C      -45.27180000     -32.96530000     -74.00330000
H      -46.09830000     -32.47700000     -74.53990000
H      -45.17520000     -34.03290000     -74.41800000
C      -43.99730000     -34.09220000     -69.51340000
H      -44.80830000     -33.42230000     -69.88650000
H      -44.33300000     -34.47500000     -68.48940000
C      -43.77980000     -35.23290000     -70.49390000
H      -43.44500000     -34.78720000     -71.37950000
H      -42.92220000     -35.83650000     -70.16200000
C      -45.58500000     -33.00460000     -72.43900000
H      -46.10590000     -32.09120000     -72.10090000
H      -44.69770000     -33.11010000     -71.82240000
C      -46.52950000     -34.15130000     -72.13220000
C      -47.86160000     -34.10180000     -72.40070000
C      -46.27790000     -35.28280000     -71.30250000
H      -48.36730000     -33.24180000     -72.80200000
C      -47.40240000     -36.11140000     -71.08330000
C      -45.03520000     -35.93180000     -70.78570000
C      -45.31900000     -37.11020000     -70.20120000
S      -48.80620000     -35.44000000     -71.88660000
S      -47.07680000     -37.57150000     -70.21070000
H      -44.73290000     -37.88190000     -69.71500000
