40
Properties=species:S:1:pos:R:3 #=T CELL(abcABC):=T 1.889726e+02=T 90.00000=T Traj:=T positionsangstrom=T Step:=T 0=T Bead:=T pbc="F F F"
C      -46.98160000     -32.93860000     -73.20870000
C      -47.26270000     -31.91130000     -72.24460000
C      -47.58680000     -32.26300000     -70.92650000
C      -47.66310000     -33.61720000     -70.47660000
C      -47.32440000     -34.59510000     -71.49060000
C      -46.91280000     -34.24870000     -72.81500000
H      -46.62640000     -32.63010000     -74.18020000
H      -47.69960000     -31.45560000     -70.13500000
H      -47.46630000     -35.60220000     -71.13230000
H      -46.74370000     -35.01970000     -73.52570000
C      -48.07110000     -33.99110000     -69.08890000
H      -48.74390000     -34.85460000     -69.07880000
H      -48.58700000     -33.12320000     -68.62780000
C      -47.11750000     -30.51560000     -72.68700000
H      -47.39300000     -30.28870000     -73.66880000
H      -47.62250000     -29.78690000     -71.97350000
S      -46.70390000     -34.41640000     -67.80800000
S      -45.37040000     -29.94880000     -72.70060000
C      -45.35580000     -33.23580000     -68.33210000
H      -45.78010000     -32.75480000     -69.18850000
H      -45.10130000     -32.58190000     -67.49850000
C      -44.88460000     -30.54760000     -70.97260000
H      -45.62940000     -31.34340000     -70.81840000
H      -44.94290000     -29.72360000     -70.22570000
C      -43.56390000     -31.33630000     -70.95380000
H      -42.71100000     -30.66210000     -71.01840000
H      -43.47410000     -31.76860000     -69.94700000
C      -44.01260000     -33.95310000     -68.72450000
H      -43.82540000     -34.76640000     -67.96830000
H      -43.21890000     -33.23340000     -68.73160000
C      -44.00230000     -34.63450000     -70.12450000
C      -44.27330000     -35.95320000     -70.27050000
C      -43.82750000     -33.93060000     -71.43910000
H      -44.62920000     -36.50590000     -69.39370000
C      -43.70350000     -34.90690000     -72.42070000
C      -43.58630000     -32.54650000     -71.88150000
C      -43.27410000     -32.59930000     -73.21430000
S      -44.10790000     -36.54280000     -71.91560000
S      -43.34640000     -34.20790000     -73.95050000
H      -43.24350000     -31.69610000     -73.90870000
