40
Properties=species:S:1:pos:R:3 #=T CELL(abcABC):=T 1.889726e+02=T 90.00000=T Traj:=T positionsangstrom=T Step:=T 0=T Bead:=T pbc="F F F"
C      -46.74200000     -34.96960000     -72.58660000
C      -45.43990000     -35.52590000     -72.74250000
C      -44.69630000     -35.92900000     -71.65910000
C      -45.23660000     -35.91270000     -70.34390000
C      -46.53300000     -35.37780000     -70.15450000
C      -47.24950000     -34.97370000     -71.29240000
H      -47.10340000     -34.55720000     -73.45330000
H      -43.82330000     -36.54930000     -71.88540000
H      -46.94580000     -35.23730000     -69.19370000
H      -48.26620000     -34.69780000     -71.15910000
C      -44.44990000     -36.35070000     -69.15260000
H      -43.49840000     -36.89860000     -69.31400000
H      -45.01810000     -37.00780000     -68.42370000
C      -44.90670000     -35.47450000     -74.10130000
H      -44.06220000     -36.09740000     -74.21650000
H      -45.66030000     -35.74920000     -74.90020000
S      -44.01650000     -34.82360000     -68.20960000
S      -44.24430000     -33.76640000     -74.46950000
C      -43.17930000     -33.88020000     -69.50440000
H      -42.08110000     -33.89690000     -69.44230000
H      -43.51740000     -34.20880000     -70.45110000
C      -43.24520000     -33.30790000     -73.07500000
H      -42.15320000     -33.61650000     -73.20750000
H      -43.60230000     -33.99000000     -72.29000000
C      -43.25510000     -31.82060000     -72.68990000
H      -42.69490000     -31.77640000     -71.78530000
H      -42.86200000     -31.24140000     -73.45340000
C      -43.59190000     -32.38100000     -69.33540000
H      -42.78500000     -31.74310000     -69.76790000
H      -43.43890000     -32.20050000     -68.23010000
C      -44.93920000     -32.04180000     -69.79090000
C      -46.06980000     -32.29460000     -68.98230000
C      -45.32800000     -31.57570000     -71.09400000
H      -46.00830000     -32.54090000     -67.93780000
C      -46.65920000     -31.26560000     -71.12790000
C      -44.70550000     -31.42120000     -72.38940000
C      -45.66540000     -31.07380000     -73.32690000
S      -47.59500000     -31.79020000     -69.73050000
S      -47.25480000     -31.00020000     -72.79440000
H      -45.46750000     -31.06020000     -74.40270000
