40
Properties=species:S:1:pos:R:3 #=T CELL(abcABC):=T 1.889726e+02=T 90.00000=T Traj:=T positionsangstrom=T Step:=T 0=T Bead:=T pbc="F F F"
C      -46.88430000     -34.91200000     -72.65890000
C      -45.55470000     -35.38550000     -72.78560000
C      -44.85180000     -35.92120000     -71.66080000
C      -45.40550000     -35.87580000     -70.38250000
C      -46.78400000     -35.46990000     -70.28300000
C      -47.52510000     -35.01180000     -71.37340000
H      -47.39260000     -34.62540000     -73.60460000
H      -43.83460000     -36.23670000     -71.87710000
H      -47.12200000     -35.57440000     -69.26330000
H      -48.59410000     -34.72730000     -71.28940000
C      -44.49520000     -36.34750000     -69.25280000
H      -43.58400000     -36.80600000     -69.57590000
H      -45.00090000     -37.04550000     -68.57750000
C      -44.88420000     -35.35120000     -74.11930000
H      -44.07580000     -36.01220000     -74.31050000
H      -45.65460000     -35.77130000     -74.85030000
S      -43.80110000     -34.98400000     -68.22450000
S      -44.34220000     -33.56480000     -74.70550000
C      -42.93560000     -33.71240000     -69.31540000
H      -41.88630000     -33.76470000     -68.99770000
H      -42.89890000     -34.14030000     -70.36600000
C      -43.03300000     -33.16720000     -73.31230000
H      -42.03730000     -33.16650000     -73.78400000
H      -43.12000000     -33.93400000     -72.58530000
C      -43.32010000     -31.71930000     -72.73330000
H      -42.58820000     -31.44340000     -71.87150000
H      -43.03960000     -31.11510000     -73.68120000
C      -43.46600000     -32.26100000     -69.21570000
H      -42.73470000     -31.66040000     -69.76680000
H      -43.44800000     -31.89740000     -68.21580000
C      -44.90280000     -32.06890000     -69.66610000
C      -45.93480000     -32.00350000     -68.75030000
C      -45.37040000     -31.87190000     -71.07280000
H      -45.83280000     -31.83630000     -67.64960000
C      -46.72350000     -31.68290000     -71.10910000
C      -44.76260000     -31.51390000     -72.35430000
C      -45.61770000     -31.05280000     -73.30650000
S      -47.52260000     -31.90610000     -69.56810000
S      -47.26330000     -31.10830000     -72.67740000
H      -45.25320000     -30.44620000     -74.11320000
