40
Properties=species:S:1:pos:R:3 #=T CELL(abcABC):=T 1.889726e+02=T 90.00000=T Traj:=T positionsangstrom=T Step:=T 0=T Bead:=T pbc="F F F"
C      -46.92870000     -34.25290000     -72.86120000
C      -47.60390000     -33.23580000     -72.17850000
C      -47.88420000     -33.33930000     -70.79080000
C      -47.42580000     -34.44160000     -70.09180000
C      -46.88700000     -35.56820000     -70.79850000
C      -46.53690000     -35.43400000     -72.15030000
H      -46.72040000     -34.31430000     -73.90980000
H      -48.50500000     -32.59710000     -70.28680000
H      -46.80530000     -36.50280000     -70.35160000
H      -46.16220000     -36.32560000     -72.66490000
C      -47.72780000     -34.52090000     -68.67300000
H      -48.14860000     -35.42660000     -68.33640000
H      -48.36910000     -33.64290000     -68.47380000
C      -48.12600000     -32.08180000     -72.94720000
H      -48.42690000     -32.32270000     -73.97350000
H      -48.95180000     -31.66480000     -72.46620000
S      -46.15910000     -34.15090000     -67.67190000
S      -46.81630000     -30.70940000     -73.16910000
C      -45.61860000     -32.54240000     -68.42560000
H      -46.38350000     -32.36250000     -69.20920000
H      -45.55710000     -31.74720000     -67.68110000
C      -45.81420000     -30.44570000     -71.69460000
H      -46.17920000     -31.10100000     -70.88060000
H      -45.82430000     -29.38410000     -71.38340000
C      -44.31120000     -30.70820000     -71.95420000
H      -43.88210000     -29.92730000     -72.63790000
H      -43.87490000     -30.39650000     -71.02520000
C      -44.21880000     -32.56230000     -69.11700000
H      -43.53670000     -32.58690000     -68.24210000
H      -43.96640000     -31.60290000     -69.49060000
C      -43.78680000     -33.48770000     -70.11220000
C      -43.16270000     -34.71360000     -69.88710000
C      -43.73910000     -33.28610000     -71.53420000
H      -42.77010000     -34.96570000     -68.90150000
C      -43.17830000     -34.30160000     -72.28470000
C      -43.98740000     -32.10250000     -72.40450000
C      -43.80250000     -32.36410000     -73.73210000
S      -42.76420000     -35.67420000     -71.26420000
S      -43.14940000     -33.93810000     -74.02600000
H      -43.80400000     -31.55650000     -74.48900000
