40
Properties=species:S:1:pos:R:3 #=T CELL(abcABC):=T 1.889726e+02=T 90.00000=T Traj:=T positionsangstrom=T Step:=T 0=T Bead:=T pbc="F F F"
C      -46.96340000     -34.95130000     -72.68900000
C      -45.59630000     -35.20180000     -72.88190000
C      -44.82430000     -35.47430000     -71.75780000
C      -45.34400000     -35.62810000     -70.42740000
C      -46.69920000     -35.45120000     -70.27940000
C      -47.48970000     -35.07080000     -71.40470000
H      -47.53320000     -34.69230000     -73.63070000
H      -43.77310000     -35.76350000     -71.83120000
H      -47.09540000     -35.70420000     -69.25240000
H      -48.55290000     -34.70620000     -71.36300000
C      -44.52960000     -36.24630000     -69.29910000
H      -43.73530000     -36.88650000     -69.76290000
H      -45.24820000     -36.86050000     -68.78610000
C      -44.99010000     -35.14230000     -74.21190000
H      -44.11140000     -35.82160000     -74.21300000
H      -45.73410000     -35.37680000     -74.88730000
S      -43.81590000     -35.02830000     -68.18250000
S      -44.27960000     -33.46360000     -74.85060000
C      -42.98050000     -33.95480000     -69.41570000
H      -41.92170000     -33.99970000     -69.19120000
H      -43.12980000     -34.26690000     -70.45180000
C      -42.99980000     -33.01700000     -73.43930000
H      -42.02710000     -32.96550000     -73.92670000
H      -43.05160000     -33.85040000     -72.71800000
C      -43.36080000     -31.69000000     -72.76280000
H      -42.74640000     -31.55280000     -71.94310000
H      -43.12940000     -30.83260000     -73.31630000
C      -43.38910000     -32.47830000     -69.32220000
H      -42.78620000     -31.92870000     -70.08810000
H      -43.16350000     -32.19520000     -68.30650000
C      -44.82100000     -32.24960000     -69.70590000
C      -45.88910000     -32.45850000     -68.81740000
C      -45.33520000     -31.86440000     -71.00890000
H      -45.92240000     -32.75370000     -67.71990000
C      -46.69690000     -31.55800000     -70.95840000
C      -44.82640000     -31.61800000     -72.31590000
C      -45.75520000     -31.21790000     -73.19260000
S      -47.39680000     -31.91440000     -69.41080000
S      -47.38680000     -31.15180000     -72.49290000
H      -45.56310000     -30.87830000     -74.17100000
