40
Properties=species:S:1:pos:R:3 #=T CELL(abcABC):=T 1.889726e+02=T 90.00000=T Traj:=T positionsangstrom=T Step:=T 0=T Bead:=T pbc="F F F"
C      -46.77740000     -34.40080000     -72.97890000
C      -45.55430000     -35.02910000     -73.19630000
C      -45.00540000     -35.79490000     -72.16870000
C      -45.55340000     -35.84870000     -70.89000000
C      -46.69920000     -35.11650000     -70.64450000
C      -47.36650000     -34.46120000     -71.70640000
H      -47.32190000     -33.91910000     -73.83150000
H      -44.11430000     -36.35250000     -72.42230000
H      -47.23640000     -35.22440000     -69.76000000
H      -48.23460000     -33.92040000     -71.47750000
C      -44.81900000     -36.66950000     -69.84370000
H      -44.06250000     -37.31210000     -70.36120000
H      -45.58640000     -37.28260000     -69.33650000
C      -44.88880000     -34.91350000     -74.59030000
H      -44.07590000     -35.49800000     -74.72200000
H      -45.71230000     -34.93670000     -75.37030000
S      -44.06490000     -35.41620000     -68.65190000
S      -44.11890000     -33.22840000     -74.74180000
C      -43.10790000     -34.42540000     -69.84490000
H      -42.02520000     -34.65220000     -69.74720000
H      -43.40580000     -34.65050000     -70.89880000
C      -43.23370000     -32.99550000     -73.07480000
H      -42.13880000     -33.12460000     -73.30520000
H      -43.52910000     -33.84990000     -72.44150000
C      -43.50980000     -31.50510000     -72.60630000
H      -42.71330000     -31.14000000     -72.01760000
H      -43.37420000     -30.91470000     -73.47930000
C      -43.15580000     -32.89450000     -69.55480000
H      -42.77290000     -32.36830000     -70.42550000
H      -42.74500000     -32.58110000     -68.60360000
C      -44.63140000     -32.44720000     -69.50830000
C      -45.57980000     -32.66640000     -68.54230000
C      -45.29040000     -31.69570000     -70.64590000
H      -45.47110000     -33.26550000     -67.68270000
C      -46.62710000     -31.48840000     -70.48340000
C      -44.87520000     -31.29740000     -72.02100000
C      -45.90450000     -31.10790000     -72.82790000
S      -47.23730000     -32.10820000     -68.95450000
S      -47.38430000     -30.97890000     -71.99490000
H      -45.98550000     -30.65540000     -73.81220000
