40
Properties=species:S:1:pos:R:3 #=T CELL(abcABC):=T 1.889726e+02=T 90.00000=T Traj:=T positionsangstrom=T Step:=T 0=T Bead:=T pbc="F F F"
C      -47.55900000     -33.93240000     -72.39460000
C      -47.89510000     -32.97060000     -71.37850000
C      -47.35020000     -31.67900000     -71.35100000
C      -46.51010000     -31.23650000     -72.40110000
C      -46.15490000     -32.20530000     -73.35640000
C      -46.63860000     -33.53740000     -73.28950000
H      -47.95440000     -34.93060000     -72.37830000
H      -47.66030000     -30.97400000     -70.55230000
H      -45.54890000     -31.83870000     -74.10760000
H      -46.28280000     -34.33990000     -73.96930000
C      -46.09570000     -29.77130000     -72.39620000
H      -46.89910000     -29.14040000     -71.98120000
H      -45.89860000     -29.39590000     -73.38390000
C      -48.99820000     -33.25900000     -70.40820000
H      -49.85950000     -32.63690000     -70.49540000
H      -49.32260000     -34.28600000     -70.58990000
S      -44.68390000     -29.41160000     -71.27860000
S      -48.25560000     -33.08250000     -68.55530000
C      -43.48080000     -30.69250000     -71.64550000
H      -43.40290000     -31.02090000     -72.66530000
H      -42.54340000     -30.22720000     -71.36540000
C      -47.09890000     -34.57670000     -68.75520000
H      -47.56940000     -35.24360000     -69.50370000
H      -47.08320000     -35.10150000     -67.80770000
C      -45.63500000     -34.25750000     -69.20610000
H      -45.70960000     -33.17680000     -69.37030000
H      -45.00210000     -34.34350000     -68.31690000
C      -43.49580000     -32.02890000     -70.72030000
H      -44.44510000     -32.08070000     -70.32850000
H      -42.82440000     -32.04750000     -69.91030000
C      -43.22800000     -33.36730000     -71.42710000
C      -42.26100000     -33.43060000     -72.39600000
C      -43.95280000     -34.63140000     -71.21830000
H      -41.44850000     -32.64940000     -72.43830000
C      -43.40320000     -35.63500000     -72.04000000
C      -45.00260000     -35.02020000     -70.35510000
C      -45.28680000     -36.41080000     -70.50670000
S      -42.03610000     -35.07130000     -72.97320000
S      -44.25010000     -37.12290000     -71.82150000
H      -45.95880000     -37.02860000     -70.04470000
