40
Properties=species:S:1:pos:R:3 #=T CELL(abcABC):=T 1.889726e+02=T 90.00000=T Traj:=T positionsangstrom=T Step:=T 0=T Bead:=T pbc="F F F"
C      -47.14250000     -33.64020000     -73.23050000
C      -47.81000000     -32.59210000     -72.51030000
C      -47.95470000     -32.65550000     -71.08760000
C      -47.61380000     -33.88480000     -70.50560000
C      -47.00350000     -34.94220000     -71.20130000
C      -46.81140000     -34.80910000     -72.56990000
H      -46.92140000     -33.61360000     -74.31410000
H      -48.39070000     -31.94000000     -70.43090000
H      -46.80900000     -35.91670000     -70.71880000
H      -46.44010000     -35.63200000     -73.18330000
C      -47.94670000     -34.17800000     -69.13500000
H      -48.14540000     -35.21690000     -68.95010000
H      -48.68690000     -33.66550000     -68.68950000
C      -47.99650000     -31.31940000     -73.20770000
H      -48.40480000     -31.57770000     -74.17900000
H      -48.89930000     -30.73110000     -72.84100000
S      -46.42600000     -34.00940000     -67.94280000
S      -46.31960000     -30.45750000     -73.39640000
C      -45.57740000     -32.52320000     -68.54220000
H      -46.05500000     -32.19980000     -69.51200000
H      -45.60670000     -31.63520000     -67.94880000
C      -45.64000000     -30.62320000     -71.73770000
H      -46.28960000     -31.22590000     -71.12990000
H      -45.52660000     -29.68680000     -71.21050000
C      -44.14040000     -31.10660000     -71.82910000
H      -43.65250000     -30.37230000     -72.47560000
H      -43.82650000     -30.95050000     -70.77750000
C      -44.07640000     -32.75190000     -68.74180000
H      -43.69870000     -32.95180000     -67.73830000
H      -43.61050000     -31.74330000     -68.92160000
C      -43.81040000     -33.82430000     -69.82850000
C      -43.33020000     -35.11430000     -69.48720000
C      -43.62420000     -33.57050000     -71.21590000
H      -43.46760000     -35.43450000     -68.42420000
C      -43.28790000     -34.79560000     -71.91250000
C      -43.76360000     -32.49220000     -72.18840000
C      -43.52850000     -32.86010000     -73.43870000
S      -42.99550000     -36.10840000     -70.85230000
S      -43.01780000     -34.58800000     -73.62420000
H      -43.77990000     -32.28470000     -74.27190000
