40
Properties=species:S:1:pos:R:3 #=T CELL(abcABC):=T 1.889726e+02=T 90.00000=T Traj:=T positionsangstrom=T Step:=T 0=T Bead:=T pbc="F F F"
C      -43.78570000     -30.68360000     -69.05890000
C      -44.05930000     -30.37750000     -70.43870000
C      -43.27140000     -30.95640000     -71.41040000
C      -42.17970000     -31.83900000     -71.09360000
C      -41.80240000     -31.96280000     -69.77360000
C      -42.70990000     -31.45050000     -68.75960000
H      -44.42980000     -30.24940000     -68.27210000
H      -43.65510000     -30.85700000     -72.45710000
H      -40.94090000     -32.53280000     -69.33230000
H      -42.42700000     -31.61490000     -67.66940000
C      -41.43160000     -32.49700000     -72.24980000
H      -40.36960000     -32.27490000     -72.15120000
H      -41.89220000     -32.10600000     -73.21250000
C      -45.21810000     -29.49270000     -70.79220000
H      -45.44530000     -28.78440000     -70.01060000
H      -44.85230000     -28.93600000     -71.63160000
S      -41.43630000     -34.34240000     -72.27280000
S      -46.78550000     -30.31090000     -71.10690000
C      -43.28990000     -34.50130000     -72.55410000
H      -43.78860000     -33.53470000     -72.91540000
H      -43.47690000     -35.17230000     -73.39820000
C      -46.99300000     -31.51860000     -69.64150000
H      -48.05930000     -31.71280000     -69.60860000
H      -46.68710000     -31.01360000     -68.68700000
C      -46.38740000     -32.90840000     -69.87360000
H      -45.40630000     -32.92530000     -70.40250000
H      -46.16390000     -33.31680000     -68.87100000
C      -44.06750000     -35.13430000     -71.40480000
H      -44.18580000     -34.48140000     -70.53460000
H      -43.47960000     -36.03710000     -71.21210000
C      -45.50430000     -35.53730000     -71.87260000
C      -45.65840000     -36.52030000     -72.88450000
C      -46.77110000     -34.92580000     -71.50900000
H      -44.88020000     -37.30390000     -73.04460000
C      -47.84300000     -35.57570000     -72.12410000
C      -47.27770000     -33.91850000     -70.56500000
C      -48.65620000     -33.84620000     -70.51910000
S      -47.33800000     -36.97890000     -73.16660000
S      -49.40630000     -35.07000000     -71.52820000
H      -49.22910000     -33.07310000     -70.09110000
