40
Properties=species:S:1:pos:R:3 #=T CELL(abcABC):=T 1.889726e+02=T 90.00000=T Traj:=T positionsangstrom=T Step:=T 0=T Bead:=T pbc="F F F"
C      -47.08420000     -33.74270000     -73.18690000
C      -47.77300000     -32.68080000     -72.54220000
C      -48.08400000     -32.82300000     -71.15610000
C      -47.73610000     -34.01570000     -70.51970000
C      -47.00900000     -35.08320000     -71.16130000
C      -46.77320000     -34.91470000     -72.50240000
H      -46.74970000     -33.63860000     -74.24720000
H      -48.47590000     -32.05850000     -70.55110000
H      -46.58260000     -35.83050000     -70.52460000
H      -46.17750000     -35.66550000     -73.03010000
C      -48.10510000     -34.06280000     -68.99710000
H      -48.78090000     -35.00090000     -68.69480000
H      -48.71380000     -33.17850000     -68.73530000
C      -47.93440000     -31.27310000     -73.07070000
H      -48.48770000     -31.25300000     -74.03860000
H      -48.46370000     -30.60990000     -72.40700000
S      -46.59700000     -34.02450000     -67.83250000
S      -46.27850000     -30.36220000     -73.45550000
C      -45.64100000     -32.62530000     -68.46910000
H      -46.21460000     -32.50560000     -69.41760000
H      -45.85610000     -31.74440000     -67.84470000
C      -45.47080000     -30.52010000     -71.88530000
H      -46.18870000     -31.17920000     -71.33200000
H      -45.43770000     -29.54240000     -71.36590000
C      -43.95550000     -30.97610000     -71.90920000
H      -43.33380000     -30.36060000     -72.59700000
H      -43.60350000     -30.72430000     -70.88400000
C      -44.15920000     -32.75120000     -68.80260000
H      -43.59780000     -32.98580000     -67.95400000
H      -43.85060000     -31.71800000     -69.11160000
C      -43.80840000     -33.80040000     -69.89610000
C      -43.41840000     -35.09670000     -69.49060000
C      -43.55970000     -33.55440000     -71.29170000
H      -43.54920000     -35.39880000     -68.48250000
C      -43.29340000     -34.73640000     -71.88650000
C      -43.62090000     -32.43680000     -72.21570000
C      -43.39050000     -32.84850000     -73.45990000
S      -42.97170000     -36.12290000     -70.88830000
S      -43.02810000     -34.59070000     -73.61610000
H      -43.31950000     -32.30540000     -74.36970000
