40
Properties=species:S:1:pos:R:3 #=T CELL(abcABC):=T 1.889726e+02=T 90.00000=T Traj:=T positionsangstrom=T Step:=T 0=T Bead:=T pbc="F F F"
C      -46.84900000     -33.75760000     -73.15510000
C      -47.43980000     -32.70510000     -72.47660000
C      -48.05790000     -32.90260000     -71.25400000
C      -47.92400000     -34.07990000     -70.52860000
C      -47.25760000     -35.18210000     -71.14680000
C      -46.69970000     -34.97330000     -72.43640000
H      -46.40410000     -33.58430000     -74.09590000
H      -48.55470000     -31.97850000     -70.78900000
H      -47.28480000     -36.16850000     -70.60190000
H      -46.27140000     -35.80820000     -72.99620000
C      -48.28430000     -34.15650000     -69.05890000
H      -48.78630000     -35.05220000     -68.79250000
H      -48.94760000     -33.37900000     -68.66250000
C      -47.59010000     -31.28180000     -73.17060000
H      -48.16570000     -31.34480000     -74.04460000
H      -48.26530000     -30.65710000     -72.58290000
S      -46.68840000     -34.19790000     -68.03540000
S      -45.95190000     -30.52260000     -73.52360000
C      -45.96710000     -32.57720000     -68.75020000
H      -46.44230000     -32.29170000     -69.68800000
H      -46.24510000     -31.76940000     -68.02300000
C      -45.24730000     -30.42790000     -71.80310000
H      -45.79660000     -31.10580000     -71.21270000
H      -45.31430000     -29.44260000     -71.32410000
C      -43.80180000     -30.88020000     -71.79690000
H      -43.19860000     -30.30630000     -72.53820000
H      -43.39790000     -30.61150000     -70.78070000
C      -44.46800000     -32.61040000     -68.85890000
H      -44.04780000     -32.83270000     -67.83770000
H      -44.22780000     -31.57710000     -68.96430000
C      -43.87960000     -33.63990000     -69.79450000
C      -43.77120000     -34.99950000     -69.42730000
C      -43.61170000     -33.48750000     -71.22900000
H      -43.76670000     -35.44790000     -68.39800000
C      -43.28710000     -34.70640000     -71.87720000
C      -43.56390000     -32.37660000     -72.14220000
C      -43.19300000     -32.75160000     -73.37560000
S      -43.21840000     -36.06910000     -70.71890000
S      -42.95980000     -34.48670000     -73.57400000
H      -43.16080000     -32.05550000     -74.27910000
