40
Properties=species:S:1:pos:R:3 #=T CELL(abcABC):=T 1.889726e+02=T 90.00000=T Traj:=T positionsangstrom=T Step:=T 0=T Bead:=T pbc="F F F"
C      -47.08390000     -33.86980000     -73.47270000
C      -47.39470000     -32.71850000     -72.74440000
C      -47.77050000     -32.83230000     -71.34910000
C      -47.67180000     -34.06700000     -70.66550000
C      -47.24070000     -35.18310000     -71.39300000
C      -47.11350000     -35.13830000     -72.79280000
H      -46.70640000     -33.77450000     -74.46940000
H      -47.99960000     -31.94290000     -70.80600000
H      -47.17940000     -36.11090000     -70.83500000
H      -46.83450000     -36.09490000     -73.27270000
C      -48.04950000     -34.13700000     -69.17410000
H      -48.78090000     -34.94750000     -68.94850000
H      -48.60010000     -33.23670000     -68.86010000
C      -47.50160000     -31.37910000     -73.45230000
H      -47.96920000     -31.55440000     -74.44350000
H      -48.03100000     -30.55330000     -72.94470000
S      -46.60230000     -34.19050000     -68.02520000
S      -45.78100000     -30.66260000     -73.63510000
C      -45.84550000     -32.56750000     -68.27530000
H      -46.19960000     -31.95950000     -69.08050000
H      -46.01050000     -32.00400000     -67.35690000
C      -45.20720000     -30.60830000     -71.83700000
H      -45.86840000     -31.22000000     -71.23080000
H      -45.39910000     -29.54890000     -71.39680000
C      -43.77960000     -30.89390000     -71.57760000
H      -43.16860000     -30.33090000     -72.28510000
H      -43.50710000     -30.64030000     -70.52390000
C      -44.26930000     -32.61790000     -68.63610000
H      -43.82930000     -32.90430000     -67.69620000
H      -43.95810000     -31.67550000     -68.98920000
C      -44.09000000     -33.68020000     -69.66570000
C      -44.01140000     -35.00650000     -69.38110000
C      -43.71820000     -33.44370000     -71.04900000
H      -44.16540000     -35.49320000     -68.48950000
C      -43.41650000     -34.58620000     -71.77510000
C      -43.40430000     -32.28910000     -71.91890000
C      -43.01920000     -32.57750000     -73.14530000
S      -43.68810000     -36.05090000     -70.79360000
S      -42.90510000     -34.32080000     -73.39410000
H      -42.69170000     -31.87040000     -73.83610000
