40
Properties=species:S:1:pos:R:3 #=T CELL(abcABC):=T 1.889726e+02=T 90.00000=T Traj:=T positionsangstrom=T Step:=T 0=T Bead:=T pbc="F F F"
C      -43.68570000     -29.48710000     -69.60940000
C      -44.48790000     -29.97350000     -70.68590000
C      -43.86990000     -30.78730000     -71.69990000
C      -42.56810000     -31.18490000     -71.58960000
C      -41.75970000     -30.76120000     -70.48630000
C      -42.33650000     -29.86630000     -69.52520000
H      -44.12270000     -28.79200000     -68.86960000
H      -44.57910000     -30.97240000     -72.57450000
H      -40.75890000     -31.22570000     -70.35150000
H      -41.67480000     -29.58190000     -68.65140000
C      -41.94360000     -32.12280000     -72.70370000
H      -40.84980000     -31.72250000     -72.85970000
H      -42.49530000     -32.05390000     -73.59230000
C      -45.88290000     -29.43460000     -70.95940000
H      -46.12180000     -28.74100000     -70.08010000
H      -45.83090000     -28.77200000     -71.76340000
S      -41.59480000     -33.82060000     -72.06690000
S      -47.30110000     -30.56410000     -71.25250000
C      -43.20490000     -34.76860000     -72.42170000
H      -43.95640000     -34.09540000     -72.88460000
H      -42.91940000     -35.56870000     -73.08940000
C      -47.03450000     -31.61890000     -69.80940000
H      -47.91530000     -31.66790000     -69.23420000
H      -46.32210000     -31.03710000     -69.14360000
C      -46.37560000     -33.02430000     -70.04570000
H      -45.48130000     -32.84530000     -70.60070000
H      -46.01400000     -33.30220000     -69.07920000
C      -43.85770000     -35.23910000     -71.13360000
H      -43.92900000     -34.43730000     -70.40380000
H      -43.19620000     -35.93930000     -70.63170000
C      -45.23740000     -35.87340000     -71.37950000
C      -45.19940000     -37.12660000     -71.92200000
C      -46.58610000     -35.39450000     -71.10900000
H      -44.26600000     -37.60250000     -72.26940000
C      -47.50610000     -36.30200000     -71.62180000
C      -47.18910000     -34.14620000     -70.63040000
C      -48.54560000     -34.19810000     -70.74320000
S      -46.85930000     -37.71900000     -72.32910000
S      -49.06690000     -35.60670000     -71.74870000
H      -49.17380000     -33.34000000     -70.49520000
