40
Properties=species:S:1:pos:R:3 #=T CELL(abcABC):=T 1.889726e+02=T 90.00000=T Traj:=T positionsangstrom=T Step:=T 0=T Bead:=T pbc="F F F"
C      -46.59270000     -33.07660000     -73.50690000
C      -46.88350000     -32.03360000     -72.62710000
C      -47.43840000     -32.31370000     -71.36100000
C      -47.64810000     -33.65200000     -70.93930000
C      -47.35720000     -34.65670000     -71.86550000
C      -46.87770000     -34.35210000     -73.14640000
H      -46.01370000     -32.95670000     -74.37350000
H      -47.62900000     -31.51560000     -70.62370000
H      -47.50800000     -35.70040000     -71.44380000
H      -46.62810000     -35.17900000     -73.85200000
C      -48.38080000     -33.95530000     -69.59940000
H      -48.93990000     -34.86840000     -69.57670000
H      -49.16290000     -33.22370000     -69.46080000
C      -46.49170000     -30.66530000     -73.00350000
H      -46.72900000     -30.35910000     -73.98160000
H      -47.14390000     -29.96990000     -72.47570000
S      -47.32790000     -34.09350000     -68.08360000
S      -44.72950000     -30.36010000     -72.81880000
C      -45.82490000     -32.94610000     -68.32210000
H      -45.92090000     -32.23760000     -69.18910000
H      -45.68670000     -32.44550000     -67.35790000
C      -44.38590000     -30.62420000     -71.03030000
H      -45.27720000     -30.94230000     -70.40550000
H      -44.27730000     -29.67330000     -70.53050000
C      -43.08100000     -31.34770000     -70.76020000
H      -42.34270000     -30.68860000     -71.14380000
H      -42.88990000     -31.43220000     -69.71090000
C      -44.57300000     -33.74830000     -68.42100000
H      -44.56730000     -34.39000000     -67.51890000
H      -43.73160000     -33.06480000     -68.28280000
C      -44.39550000     -34.48190000     -69.82950000
C      -44.98190000     -35.68780000     -69.97960000
C      -43.66550000     -33.96800000     -70.99250000
H      -45.61490000     -36.26170000     -69.31700000
C      -43.73980000     -34.89560000     -72.06280000
C      -43.10630000     -32.69090000     -71.47100000
C      -42.85010000     -32.77690000     -72.86590000
S      -44.65370000     -36.37300000     -71.59980000
S      -43.26850000     -34.26030000     -73.62570000
H      -42.48790000     -32.04410000     -73.51980000
