40
Properties=species:S:1:pos:R:3 #=T CELL(abcABC):=T 1.889726e+02=T 90.00000=T Traj:=T positionsangstrom=T Step:=T 0=T Bead:=T pbc="F F F"
C      -47.08160000     -32.92330000     -73.42630000
C      -47.21280000     -31.81080000     -72.59780000
C      -47.88890000     -31.92470000     -71.35500000
C      -48.17650000     -33.23680000     -70.91580000
C      -47.90700000     -34.37140000     -71.62990000
C      -47.37020000     -34.25920000     -72.95540000
H      -46.59980000     -32.83930000     -74.39580000
H      -48.06110000     -31.05370000     -70.72130000
H      -48.03550000     -35.31260000     -71.11800000
H      -47.01410000     -35.07000000     -73.58650000
C      -48.67930000     -33.52290000     -69.53350000
H      -49.47060000     -34.31150000     -69.43480000
H      -49.04140000     -32.59460000     -69.11860000
C      -46.79240000     -30.45270000     -73.05130000
H      -47.03710000     -30.32240000     -74.09990000
H      -47.25260000     -29.68610000     -72.47220000
S      -47.30710000     -34.09070000     -68.32270000
S      -44.98590000     -30.21780000     -73.03070000
C      -45.81560000     -33.08360000     -68.66370000
H      -45.88710000     -32.71280000     -69.66240000
H      -45.69060000     -32.25000000     -67.88740000
C      -44.63560000     -30.61550000     -71.17370000
H      -45.41740000     -31.21850000     -70.82220000
H      -44.72550000     -29.66740000     -70.59980000
C      -43.38130000     -31.38650000     -70.86130000
H      -42.47500000     -30.87570000     -71.04730000
H      -43.43180000     -31.52670000     -69.68270000
C      -44.53670000     -33.88410000     -68.55640000
H      -44.49530000     -34.39960000     -67.61790000
H      -43.80760000     -33.14130000     -68.30170000
C      -44.13710000     -34.68330000     -69.73160000
C      -44.09440000     -36.01980000     -69.75550000
C      -43.66690000     -34.08060000     -71.02870000
H      -44.45460000     -36.62880000     -69.00180000
C      -43.44960000     -35.08940000     -71.97360000
C      -43.41460000     -32.71750000     -71.56200000
C      -43.06160000     -32.82440000     -72.91310000
S      -43.60430000     -36.69970000     -71.29610000
S      -42.85030000     -34.49170000     -73.50620000
H      -42.76400000     -31.95640000     -73.49590000
