40
Properties=species:S:1:pos:R:3 #=T CELL(abcABC):=T 1.889726e+02=T 90.00000=T Traj:=T positionsangstrom=T Step:=T 0=T Bead:=T pbc="F F F"
C      -46.88150000     -32.93730000     -73.33810000
C      -47.23350000     -31.75270000     -72.65600000
C      -47.82050000     -31.78990000     -71.40370000
C      -48.19500000     -33.03730000     -70.91010000
C      -47.88280000     -34.24250000     -71.57420000
C      -47.12580000     -34.20870000     -72.76610000
H      -46.37460000     -32.79210000     -74.32870000
H      -48.08290000     -30.85630000     -70.87750000
H      -48.10270000     -35.17920000     -71.08350000
H      -46.95870000     -35.12480000     -73.35210000
C      -48.57550000     -33.18240000     -69.36680000
H      -49.53410000     -33.56820000     -69.28640000
H      -48.64170000     -32.18120000     -68.88910000
C      -46.77850000     -30.47550000     -73.19770000
H      -46.79950000     -30.55200000     -74.27860000
H      -47.41780000     -29.64070000     -72.80000000
S      -47.40020000     -34.24230000     -68.38990000
S      -44.98120000     -30.23540000     -72.81890000
C      -45.91300000     -33.12350000     -68.66210000
H      -46.12090000     -32.60330000     -69.61410000
H      -45.98930000     -32.31350000     -67.88440000
C      -44.72900000     -30.76900000     -71.07690000
H      -45.50870000     -31.55200000     -70.90160000
H      -44.72560000     -30.01180000     -70.34750000
C      -43.37220000     -31.43630000     -70.85100000
H      -42.45200000     -30.73940000     -71.01430000
H      -43.36130000     -31.57050000     -69.76530000
C      -44.61890000     -33.82640000     -68.60630000
H      -44.49240000     -34.46740000     -67.71430000
H      -43.85300000     -33.05510000     -68.58070000
C      -44.24480000     -34.62720000     -69.87160000
C      -44.24850000     -35.98940000     -69.81740000
C      -43.69100000     -34.07810000     -71.12540000
H      -44.80690000     -36.62820000     -69.16950000
C      -43.36820000     -35.10000000     -71.97510000
C      -43.31020000     -32.81690000     -71.61510000
C      -42.85510000     -32.91180000     -72.93170000
S      -43.71810000     -36.69330000     -71.34730000
S      -42.81370000     -34.56680000     -73.56370000
H      -42.63100000     -32.08520000     -73.60020000
