40
Properties=species:S:1:pos:R:3 #=T CELL(abcABC):=T 1.889726e+02=T 90.00000=T Traj:=T positionsangstrom=T Step:=T 0=T Bead:=T pbc="F F F"
C      -46.60900000     -32.43680000     -73.27010000
C      -46.80940000     -31.50110000     -72.29890000
C      -47.47050000     -31.90240000     -71.14650000
C      -47.81010000     -33.25940000     -70.89610000
C      -47.45620000     -34.24460000     -71.78780000
C      -46.98040000     -33.83890000     -73.03850000
H      -46.28790000     -32.14400000     -74.26550000
H      -47.87400000     -31.23660000     -70.38510000
H      -47.59330000     -35.29720000     -71.63470000
H      -46.76280000     -34.56460000     -73.82330000
C      -48.34470000     -33.59880000     -69.54140000
H      -49.20060000     -34.30230000     -69.66820000
H      -48.77890000     -32.72570000     -69.08950000
C      -46.48910000     -30.03020000     -72.47210000
H      -46.82710000     -29.65160000     -73.45330000
H      -46.99230000     -29.43130000     -71.68390000
S      -47.21910000     -34.47050000     -68.37540000
S      -44.63900000     -29.86360000     -72.34270000
C      -45.68620000     -33.40090000     -68.37250000
H      -45.99600000     -32.55410000     -68.95760000
H      -45.69690000     -33.10650000     -67.34520000
C      -44.35120000     -30.72050000     -70.74370000
H      -45.15830000     -31.33680000     -70.37940000
H      -43.96220000     -30.00110000     -70.02470000
C      -43.15000000     -31.64970000     -70.96520000
H      -42.34510000     -31.15220000     -71.57450000
H      -42.69660000     -31.82620000     -69.91210000
C      -44.39550000     -34.01340000     -68.65600000
H      -44.18930000     -34.77500000     -67.93000000
H      -43.56510000     -33.26950000     -68.71570000
C      -44.40590000     -34.73820000     -70.00170000
C      -44.69420000     -36.10520000     -70.05620000
C      -43.93580000     -34.17280000     -71.28340000
H      -44.87700000     -36.75880000     -69.17760000
C      -44.09190000     -35.08740000     -72.29170000
C      -43.36490000     -32.96360000     -71.70010000
C      -42.94740000     -33.01440000     -73.03670000
S      -44.54080000     -36.68170000     -71.72440000
S      -43.35050000     -34.53900000     -73.80740000
H      -42.51180000     -32.16540000     -73.54770000
