40
Properties=species:S:1:pos:R:3 #=T CELL(abcABC):=T 1.889726e+02=T 90.00000=T Traj:=T positionsangstrom=T Step:=T 0=T Bead:=T pbc="F F F"
C      -47.53840000     -31.43020000     -73.21260000
C      -46.97340000     -30.85430000     -72.03430000
C      -47.17780000     -31.49960000     -70.84040000
C      -47.87020000     -32.68260000     -70.75300000
C      -48.36890000     -33.29850000     -71.97810000
C      -48.15870000     -32.66060000     -73.18410000
H      -47.33720000     -30.91820000     -74.22470000
H      -46.84280000     -31.14110000     -69.85700000
H      -48.91730000     -34.22060000     -71.99380000
H      -48.52210000     -33.15460000     -74.09580000
C      -48.22250000     -33.33050000     -69.48230000
H      -49.17400000     -33.92040000     -69.51760000
H      -48.29470000     -32.63240000     -68.66950000
C      -46.07940000     -29.70980000     -72.17190000
H      -46.31570000     -29.18680000     -73.04380000
H      -46.29050000     -29.07270000     -71.25770000
S      -47.00250000     -34.61110000     -68.79330000
S      -44.28140000     -30.16380000     -72.46170000
C      -45.56590000     -33.57560000     -68.30590000
H      -45.61220000     -32.80900000     -69.02030000
H      -45.75300000     -33.10880000     -67.32020000
C      -43.80970000     -30.99250000     -70.86880000
H      -44.70430000     -31.34080000     -70.39600000
H      -43.51010000     -30.26420000     -70.12980000
C      -42.77370000     -32.05940000     -71.04790000
H      -41.88810000     -31.70150000     -71.60480000
H      -42.37240000     -32.39200000     -70.06250000
C      -44.23060000     -34.34140000     -68.53110000
H      -44.18740000     -35.21150000     -67.79060000
H      -43.45890000     -33.62070000     -68.29770000
C      -44.10750000     -35.02080000     -69.92680000
C      -44.44510000     -36.33870000     -69.95360000
C      -43.81980000     -34.46900000     -71.25720000
H      -44.66360000     -36.95570000     -69.08730000
C      -44.04550000     -35.42140000     -72.24160000
C      -43.27220000     -33.21510000     -71.77340000
C      -43.15940000     -33.30860000     -73.17720000
S      -44.51200000     -36.96640000     -71.53310000
S      -43.74420000     -34.80360000     -73.81050000
H      -42.66340000     -32.58210000     -73.86010000
