40
Properties=species:S:1:pos:R:3 #=T CELL(abcABC):=T 1.889726e+02=T 90.00000=T Traj:=T positionsangstrom=T Step:=T 0=T Bead:=T pbc="F F F"
C      -46.96680000     -30.04510000     -70.74560000
C      -47.35740000     -30.89160000     -71.77480000
C      -46.47910000     -31.07160000     -72.82370000
C      -45.31470000     -30.28780000     -72.95010000
C      -44.95500000     -29.33690000     -71.96260000
C      -45.84460000     -29.20110000     -70.87730000
H      -47.74910000     -29.80010000     -70.01610000
H      -46.70080000     -31.79640000     -73.71950000
H      -44.09600000     -28.69420000     -72.14390000
H      -45.77980000     -28.37160000     -70.24470000
C      -44.39320000     -30.62340000     -74.06390000
H      -44.38190000     -29.80900000     -74.77110000
H      -44.82570000     -31.42990000     -74.64100000
C      -48.71200000     -31.64400000     -71.59110000
H      -49.48060000     -30.91450000     -71.32280000
H      -48.95630000     -32.07780000     -72.59460000
S      -42.72290000     -31.21300000     -73.47800000
S      -48.52470000     -33.02390000     -70.35230000
C      -43.24550000     -33.05000000     -73.24190000
H      -44.28370000     -32.97350000     -73.41720000
H      -42.70880000     -33.65410000     -73.97290000
C      -47.09430000     -32.54110000     -69.27000000
H      -47.46490000     -32.96150000     -68.27300000
H      -46.95740000     -31.47640000     -69.24540000
C      -45.73140000     -33.13160000     -69.76980000
H      -45.51140000     -32.88500000     -70.79770000
H      -44.98050000     -32.76350000     -68.99980000
C      -43.11660000     -33.45500000     -71.76680000
H      -43.74000000     -32.69590000     -71.28970000
H      -42.14790000     -33.36470000     -71.26760000
C      -43.62300000     -34.85540000     -71.49260000
C      -42.94400000     -35.93550000     -72.07660000
C      -44.62660000     -35.32330000     -70.59880000
H      -42.31210000     -35.91130000     -72.95790000
C      -44.67050000     -36.68730000     -70.50270000
C      -45.51090000     -34.64340000     -69.77030000
C      -46.33170000     -35.57160000     -69.09020000
S      -43.55920000     -37.48230000     -71.55760000
S      -45.78720000     -37.27090000     -69.29160000
H      -47.09550000     -35.31720000     -68.36560000
