40
Properties=species:S:1:pos:R:3 #=T CELL(abcABC):=T 1.889726e+02=T 90.00000=T Traj:=T positionsangstrom=T Step:=T 0=T Bead:=T pbc="F F F"
C      -44.86450000     -29.58330000     -69.73820000
C      -43.96530000     -30.40900000     -70.47930000
C      -43.39030000     -31.46950000     -69.84830000
C      -43.60470000     -31.73440000     -68.45420000
C      -44.60380000     -31.01250000     -67.80910000
C      -45.26000000     -29.96980000     -68.47440000
H      -45.42180000     -28.78750000     -70.29090000
H      -42.80930000     -32.16550000     -70.47980000
H      -44.92720000     -31.22640000     -66.77450000
H      -46.06470000     -29.49660000     -67.98430000
C      -42.76570000     -32.78390000     -67.79230000
H      -43.02710000     -32.91030000     -66.78030000
H      -41.70610000     -32.34550000     -67.79980000
C      -43.76200000     -30.04660000     -71.95450000
H      -44.62920000     -29.51060000     -72.31620000
H      -42.93110000     -29.30760000     -71.97550000
S      -42.80350000     -34.36850000     -68.76960000
S      -43.34870000     -31.47040000     -73.06190000
C      -44.57980000     -34.54430000     -69.18630000
H      -44.96650000     -35.39000000     -68.63240000
H      -45.09900000     -33.70670000     -68.81380000
C      -44.95200000     -32.07730000     -73.54840000
H      -45.40380000     -31.52530000     -74.33090000
H      -45.59380000     -31.80750000     -72.65770000
C      -44.70200000     -33.63240000     -73.89540000
H      -44.30800000     -33.67120000     -74.93600000
H      -43.90350000     -33.96530000     -73.17360000
C      -44.71550000     -34.66760000     -70.76900000
H      -43.99330000     -35.40920000     -71.16950000
H      -44.61820000     -33.68670000     -71.11300000
C      -46.11730000     -35.16600000     -71.18840000
C      -47.06770000     -35.75280000     -70.38580000
C      -46.51970000     -35.05640000     -72.61730000
H      -46.94090000     -36.03730000     -69.28800000
C      -47.82450000     -35.58260000     -72.80660000
C      -45.97090000     -34.46130000     -73.82060000
C      -46.86450000     -34.51930000     -74.86890000
S      -48.48490000     -36.14350000     -71.36680000
S      -48.47840000     -35.19040000     -74.43150000
H      -46.80680000     -34.02820000     -75.88640000
