40
Properties=species:S:1:pos:R:3 #=T CELL(abcABC):=T 1.889726e+02=T 90.00000=T Traj:=T positionsangstrom=T Step:=T 0=T Bead:=T pbc="F F F"
C      -47.12690000     -30.31320000     -72.48510000
C      -45.98420000     -30.38070000     -71.67620000
C      -46.17200000     -30.82530000     -70.31610000
C      -47.32800000     -31.47020000     -69.85770000
C      -48.35680000     -31.58860000     -70.76460000
C      -48.27800000     -30.98200000     -72.03220000
H      -46.96190000     -29.83850000     -73.40040000
H      -45.28950000     -30.72040000     -69.71030000
H      -49.22610000     -32.13620000     -70.56670000
H      -49.22680000     -30.93760000     -72.62170000
C      -47.45790000     -32.02880000     -68.46330000
H      -48.47260000     -32.10180000     -68.18330000
H      -46.92480000     -31.43220000     -67.66870000
C      -44.67200000     -29.74720000     -72.10640000
H      -44.78780000     -29.03450000     -72.94890000
H      -44.13010000     -29.12360000     -71.39980000
S      -46.91120000     -33.84810000     -68.28420000
S      -43.42070000     -31.06620000     -72.67460000
C      -45.06990000     -33.79010000     -68.55730000
H      -44.87380000     -32.98240000     -69.34970000
H      -44.56420000     -33.57810000     -67.56210000
C      -42.98290000     -31.93630000     -71.07620000
H      -43.80590000     -31.87810000     -70.42230000
H      -42.25360000     -31.26410000     -70.53820000
C      -42.47840000     -33.31340000     -71.29680000
H      -41.45590000     -33.33240000     -71.70480000
H      -42.41060000     -33.68370000     -70.22990000
C      -44.42790000     -35.11240000     -69.01980000
H      -44.59970000     -35.95710000     -68.33550000
H      -43.40400000     -34.93850000     -69.04880000
C      -44.84960000     -35.58100000     -70.38930000
C      -45.92210000     -36.39070000     -70.57240000
C      -44.33340000     -35.11780000     -71.62640000
H      -46.34900000     -36.97290000     -69.72800000
C      -44.84990000     -35.85490000     -72.72350000
C      -43.32690000     -34.21790000     -72.10990000
C      -43.17620000     -34.24140000     -73.46600000
S      -46.17720000     -36.91760000     -72.27950000
S      -44.38130000     -35.23020000     -74.27480000
H      -42.48880000     -33.55270000     -73.94290000
