40
Properties=species:S:1:pos:R:3 #=T CELL(abcABC):=T 1.889726e+02=T 90.00000=T Traj:=T positionsangstrom=T Step:=T 0=T Bead:=T pbc="F F F"
C      -47.22100000     -30.95860000     -72.67230000
C      -46.34980000     -30.44870000     -71.67770000
C      -46.51470000     -30.85650000     -70.33080000
C      -47.49780000     -31.81120000     -70.07980000
C      -48.31410000     -32.36020000     -71.04830000
C      -48.25680000     -31.86560000     -72.37910000
H      -47.23850000     -30.62250000     -73.74530000
H      -46.07140000     -30.14980000     -69.59780000
H      -49.09890000     -33.16640000     -70.85210000
H      -48.86810000     -32.23470000     -73.21980000
C      -47.59500000     -32.16730000     -68.61560000
H      -48.56750000     -31.98520000     -68.11250000
H      -46.82870000     -31.65910000     -68.08970000
C      -45.28370000     -29.54660000     -72.01420000
H      -45.50100000     -28.88170000     -72.89200000
H      -44.84750000     -28.96230000     -71.19380000
S      -47.12120000     -33.97550000     -68.43920000
S      -43.77400000     -30.57710000     -72.45700000
C      -45.31700000     -33.65190000     -68.32710000
H      -45.10460000     -32.80760000     -68.95130000
H      -45.11790000     -33.46610000     -67.29430000
C      -43.55080000     -31.65620000     -71.02200000
H      -44.50330000     -32.12890000     -70.62960000
H      -43.13110000     -31.24340000     -70.10070000
C      -42.51810000     -32.75250000     -71.38140000
H      -41.68920000     -32.39180000     -71.94910000
H      -42.14360000     -33.34690000     -70.43630000
C      -44.39310000     -34.80260000     -68.88890000
H      -44.41620000     -35.65750000     -68.24190000
H      -43.41780000     -34.42650000     -68.80310000
C      -44.75860000     -35.27940000     -70.33280000
C      -45.63780000     -36.30680000     -70.47610000
C      -44.10590000     -34.89070000     -71.60930000
H      -46.17040000     -36.87070000     -69.69990000
C      -44.56160000     -35.72210000     -72.65000000
C      -43.19780000     -33.91310000     -72.19600000
C      -42.87510000     -34.14720000     -73.53480000
S      -45.67630000     -36.96540000     -72.17100000
S      -43.76630000     -35.45150000     -74.16300000
H      -42.31790000     -33.48630000     -74.24990000
