40
Properties=species:S:1:pos:R:3 #=T CELL(abcABC):=T 1.889726e+02=T 90.00000=T Traj:=T positionsangstrom=T Step:=T 0=T Bead:=T pbc="F F F"
C      -47.18750000     -29.39810000     -70.67190000
C      -47.45600000     -30.63700000     -71.24920000
C      -46.64070000     -31.08230000     -72.28240000
C      -45.51510000     -30.35320000     -72.74720000
C      -45.31170000     -29.09570000     -72.25450000
C      -46.08010000     -28.71410000     -71.15420000
H      -47.85320000     -28.95400000     -69.93620000
H      -46.78070000     -32.05980000     -72.76640000
H      -44.57380000     -28.34810000     -72.58770000
H      -45.78390000     -27.73180000     -70.70420000
C      -44.68920000     -30.90110000     -73.88710000
H      -44.61950000     -30.11240000     -74.62920000
H      -45.15160000     -31.83420000     -74.31070000
C      -48.74700000     -31.45240000     -70.92130000
H      -49.36070000     -30.93630000     -70.18230000
H      -49.33070000     -31.65200000     -71.78930000
S      -42.88670000     -31.29290000     -73.65160000
S      -48.24050000     -33.11210000     -70.26360000
C      -42.97640000     -32.99880000     -73.27500000
H      -43.92510000     -33.42930000     -73.68400000
H      -42.24220000     -33.54180000     -73.88690000
C      -46.91450000     -32.80730000     -69.00000000
H      -47.23590000     -33.30090000     -68.09430000
H      -47.03520000     -31.70480000     -68.78370000
C      -45.54910000     -33.32740000     -69.42620000
H      -45.03090000     -32.83400000     -70.25540000
H      -44.76910000     -33.20790000     -68.58650000
C      -43.01100000     -33.36400000     -71.75000000
H      -43.70170000     -32.70920000     -71.28480000
H      -42.10540000     -33.22780000     -71.29190000
C      -43.45010000     -34.91720000     -71.47290000
C      -42.68610000     -35.89630000     -72.11800000
C      -44.51810000     -35.41230000     -70.64710000
H      -41.78180000     -35.77380000     -72.66390000
C      -44.54360000     -36.79260000     -70.62410000
C      -45.61110000     -34.74410000     -69.84180000
C      -46.47220000     -35.73330000     -69.39070000
S      -43.27530000     -37.50250000     -71.67240000
S      -46.04030000     -37.33330000     -69.82930000
H      -47.43510000     -35.52900000     -68.87180000
