40
Properties=species:S:1:pos:R:3 #=T CELL(abcABC):=T 1.889726e+02=T 90.00000=T Traj:=T positionsangstrom=T Step:=T 0=T Bead:=T pbc="F F F"
C      -45.46450000     -37.05640000     -71.92630000
C      -46.77130000     -36.53520000     -71.97020000
C      -47.09860000     -35.66720000     -72.98540000
C      -46.13710000     -35.23780000     -73.88240000
C      -44.84140000     -35.75780000     -73.80650000
C      -44.51270000     -36.67790000     -72.86800000
H      -45.13690000     -37.70270000     -71.10520000
H      -48.08120000     -35.17250000     -72.81450000
H      -44.07970000     -35.33740000     -74.43940000
H      -43.45360000     -36.93680000     -72.77970000
C      -46.51090000     -34.21460000     -74.91650000
H      -47.47990000     -33.85940000     -74.62100000
H      -46.68990000     -34.64920000     -75.91660000
C      -47.62040000     -36.78180000     -70.79550000
H      -48.50110000     -36.15640000     -70.83600000
H      -47.93710000     -37.76830000     -70.75580000
S      -45.30570000     -32.88680000     -75.21460000
S      -46.83860000     -36.40800000     -69.18880000
C      -44.68570000     -32.48930000     -73.47820000
H      -44.58860000     -33.45500000     -73.02210000
H      -43.77010000     -31.95970000     -73.58580000
C      -46.79460000     -34.56630000     -69.30280000
H      -46.79740000     -34.09040000     -68.31540000
H      -47.68070000     -34.16030000     -69.73720000
C      -45.57510000     -34.09730000     -70.17910000
H      -44.87420000     -34.88170000     -70.29210000
H      -45.87880000     -33.84940000     -71.18410000
C      -45.67550000     -31.57000000     -72.78440000
H      -46.57700000     -32.05630000     -72.52910000
H      -45.92450000     -30.71400000     -73.54170000
C      -45.03320000     -30.94340000     -71.57270000
C      -44.50600000     -29.67060000     -71.61350000
C      -44.83940000     -31.55710000     -70.24680000
H      -44.63150000     -29.11430000     -72.55350000
C      -44.12810000     -30.71480000     -69.39130000
C      -44.87560000     -32.90480000     -69.58080000
C      -44.26940000     -32.95530000     -68.37790000
S      -43.79780000     -29.16120000     -70.10890000
S      -43.52430000     -31.41230000     -67.93820000
H      -44.10090000     -33.77260000     -67.65910000
