40
Properties=species:S:1:pos:R:3 #=T CELL(abcABC):=T 1.889726e+02=T 90.00000=T Traj:=T positionsangstrom=T Step:=T 0=T Bead:=T pbc="F F F"
C      -46.33480000     -30.51700000     -72.39820000
C      -45.37170000     -30.33360000     -71.40970000
C      -45.70710000     -30.87270000     -70.13530000
C      -46.93350000     -31.50150000     -69.84800000
C      -47.96380000     -31.42160000     -70.79030000
C      -47.61330000     -30.99450000     -72.12080000
H      -46.06720000     -30.06960000     -73.38590000
H      -44.90630000     -31.00040000     -69.36690000
H      -48.92180000     -31.84810000     -70.65730000
H      -48.37890000     -31.03670000     -72.89950000
C      -47.22780000     -32.00040000     -68.43370000
H      -48.25970000     -31.93480000     -68.15620000
H      -46.74230000     -31.41330000     -67.57230000
C      -44.11880000     -29.68830000     -71.62890000
H      -44.27360000     -28.83430000     -72.25380000
H      -43.75300000     -29.20690000     -70.66590000
S      -46.78440000     -33.79400000     -68.28570000
S      -42.96850000     -30.92710000     -72.46080000
C      -44.95390000     -33.72260000     -68.28800000
H      -44.65260000     -32.79740000     -68.70160000
H      -44.65390000     -33.73920000     -67.27000000
C      -42.97080000     -32.32980000     -71.24570000
H      -43.86760000     -32.42890000     -70.73770000
H      -42.24260000     -32.12810000     -70.45510000
C      -42.49250000     -33.70130000     -71.81050000
H      -41.64890000     -33.52580000     -72.54700000
H      -42.00550000     -34.24410000     -71.01620000
C      -44.44970000     -34.85710000     -69.17240000
H      -44.58770000     -35.74630000     -68.54430000
H      -43.38480000     -34.75150000     -69.30030000
C      -45.16130000     -35.29730000     -70.54120000
C      -46.34920000     -36.01700000     -70.49440000
C      -44.71750000     -35.08910000     -71.87340000
H      -46.89250000     -36.32960000     -69.64250000
C      -45.61140000     -35.68100000     -72.79900000
C      -43.53010000     -34.54230000     -72.48930000
C      -43.55550000     -34.71480000     -73.85660000
S      -46.96160000     -36.39760000     -72.08460000
S      -44.92930000     -35.73560000     -74.37470000
H      -42.63960000     -34.39220000     -74.48380000
