40
Properties=species:S:1:pos:R:3 #=T CELL(abcABC):=T 1.889726e+02=T 90.00000=T Traj:=T positionsangstrom=T Step:=T 0=T Bead:=T pbc="F F F"
C      -45.19020000     -30.25000000     -68.62430000
C      -46.01180000     -31.36540000     -68.41550000
C      -47.09640000     -31.61020000     -69.23960000
C      -47.47970000     -30.71860000     -70.26340000
C      -46.65550000     -29.61930000     -70.42390000
C      -45.57350000     -29.34080000     -69.61180000
H      -44.32340000     -30.00540000     -67.98100000
H      -47.58130000     -32.54110000     -69.01420000
H      -47.01070000     -28.79800000     -71.09300000
H      -45.01060000     -28.46370000     -69.87450000
C      -48.63500000     -30.94310000     -71.14980000
H      -48.48080000     -30.34630000     -72.09610000
H      -49.55620000     -30.68190000     -70.65000000
C      -45.55440000     -32.29180000     -67.33640000
H      -44.63240000     -31.90240000     -66.85330000
H      -46.23630000     -32.54300000     -66.56440000
S      -48.94860000     -32.65020000     -71.81130000
S      -45.20090000     -34.04750000     -67.89470000
C      -47.48680000     -33.04800000     -72.80100000
H      -47.90710000     -33.57970000     -73.67130000
H      -46.97240000     -32.18260000     -73.17390000
C      -44.18430000     -33.97530000     -69.49370000
H      -43.12940000     -33.66580000     -69.31580000
H      -44.58100000     -33.21730000     -70.14480000
C      -44.18230000     -35.40050000     -70.07580000
H      -43.61570000     -36.05530000     -69.45330000
H      -45.23780000     -35.78850000     -70.16810000
C      -46.53580000     -34.10760000     -72.13510000
H      -47.14480000     -34.97980000     -71.84000000
H      -46.13370000     -33.65270000     -71.29170000
C      -45.36540000     -34.37100000     -73.03900000
C      -45.39270000     -34.07490000     -74.39070000
C      -44.11380000     -34.95120000     -72.66890000
H      -46.14540000     -33.53040000     -74.87560000
C      -43.29210000     -35.18630000     -73.79400000
C      -43.44420000     -35.33940000     -71.45140000
C      -42.24810000     -35.88500000     -71.64380000
S      -43.88520000     -34.43100000     -75.20220000
S      -41.79760000     -35.94110000     -73.29600000
H      -41.53870000     -36.21600000     -70.92590000
