40
Properties=species:S:1:pos:R:3 #=T CELL(abcABC):=T 1.889726e+02=T 90.00000=T Traj:=T positionsangstrom=T Step:=T 0=T Bead:=T pbc="F F F"
C      -46.22400000     -30.63760000     -72.33160000
C      -45.34240000     -30.39220000     -71.24420000
C      -45.72880000     -30.74350000     -69.94920000
C      -46.89710000     -31.49280000     -69.72750000
C      -47.70210000     -31.88340000     -70.86160000
C      -47.34900000     -31.49730000     -72.12400000
H      -45.96000000     -30.45010000     -73.32160000
H      -45.05380000     -30.50860000     -69.14580000
H      -48.57350000     -32.56110000     -70.62360000
H      -47.94450000     -31.75640000     -73.03050000
C      -47.27340000     -31.86720000     -68.38790000
H      -48.44150000     -31.88060000     -68.25270000
H      -46.76050000     -31.28720000     -67.62370000
C      -43.91760000     -29.81610000     -71.56020000
H      -43.96750000     -28.93170000     -72.24190000
H      -43.36800000     -29.60160000     -70.61540000
S      -46.73820000     -33.66040000     -68.07070000
S      -42.99570000     -31.21230000     -72.41770000
C      -44.95140000     -33.70560000     -68.63070000
H      -44.85840000     -32.85180000     -69.32880000
H      -44.24790000     -33.62720000     -67.80430000
C      -42.67560000     -32.55010000     -71.18180000
H      -43.53890000     -32.67070000     -70.47500000
H      -41.90790000     -32.29830000     -70.43480000
C      -42.37970000     -33.85530000     -71.89730000
H      -41.72030000     -33.60700000     -72.67980000
H      -41.91360000     -34.63670000     -71.30980000
C      -44.49250000     -34.96560000     -69.35260000
H      -44.72340000     -35.83430000     -68.73060000
H      -43.40880000     -34.76720000     -69.41660000
C      -45.21530000     -35.30720000     -70.58620000
C      -46.43150000     -35.93110000     -70.48340000
C      -44.78900000     -35.02410000     -71.95760000
H      -46.94640000     -36.22220000     -69.54500000
C      -45.73290000     -35.43800000     -72.87030000
C      -43.59020000     -34.49890000     -72.59410000
C      -43.54680000     -34.67730000     -73.95690000
S      -47.10570000     -36.29230000     -72.05230000
S      -45.16320000     -35.24240000     -74.48070000
H      -42.92990000     -34.22340000     -74.63000000
