40
Properties=species:S:1:pos:R:3 #=T CELL(abcABC):=T 1.889726e+02=T 90.00000=T Traj:=T positionsangstrom=T Step:=T 0=T Bead:=T pbc="F F F"
C      -45.68540000     -37.32990000     -72.66790000
C      -46.67360000     -36.33140000     -72.26920000
C      -47.00540000     -35.27020000     -73.10470000
C      -46.22570000     -35.09770000     -74.28400000
C      -45.30420000     -36.09910000     -74.67300000
C      -45.00860000     -37.21650000     -73.86690000
H      -45.63220000     -38.19200000     -71.91510000
H      -47.75670000     -34.40860000     -72.77760000
H      -44.60530000     -35.94990000     -75.46860000
H      -44.42090000     -38.03990000     -74.17830000
C      -46.44360000     -33.88690000     -75.17190000
H      -47.47260000     -33.54940000     -75.09100000
H      -46.24590000     -34.09820000     -76.22600000
C      -47.34160000     -36.54370000     -70.89400000
H      -48.07510000     -35.73610000     -70.73290000
H      -47.88460000     -37.50400000     -70.78260000
S      -45.30430000     -32.43390000     -74.99720000
S      -46.25190000     -36.68240000     -69.41260000
C      -44.77250000     -32.70820000     -73.30570000
H      -44.70370000     -33.80390000     -73.21240000
H      -43.71540000     -32.30320000     -73.22380000
C      -46.00060000     -34.86970000     -69.19200000
H      -45.81180000     -34.73780000     -68.14890000
H      -46.96770000     -34.36430000     -69.42300000
C      -44.74120000     -34.31700000     -69.94060000
H      -44.04640000     -35.07950000     -69.63550000
H      -44.85910000     -34.19590000     -71.00910000
C      -45.82460000     -32.08470000     -72.39700000
H      -46.46870000     -32.90210000     -71.92030000
H      -46.47170000     -31.37770000     -72.87520000
C      -45.18750000     -31.20180000     -71.27040000
C      -45.23770000     -29.85180000     -71.32420000
C      -44.60440000     -31.62510000     -70.00230000
H      -45.55970000     -29.23880000     -72.08760000
C      -44.24300000     -30.55890000     -69.15890000
C      -44.39900000     -32.89440000     -69.44690000
C      -43.80320000     -32.82580000     -68.22630000
S      -44.65030000     -29.00190000     -69.82880000
S      -43.63560000     -31.14610000     -67.62260000
H      -43.51160000     -33.70670000     -67.64600000
