40
Properties=species:S:1:pos:R:3 #=T CELL(abcABC):=T 1.889726e+02=T 90.00000=T Traj:=T positionsangstrom=T Step:=T 0=T Bead:=T pbc="F F F"
C      -45.82750000     -37.41010000     -72.82190000
C      -46.63000000     -36.51390000     -72.13060000
C      -46.88740000     -35.24720000     -72.68310000
C      -46.49850000     -34.96780000     -74.01600000
C      -45.72260000     -35.89740000     -74.71890000
C      -45.33940000     -37.11870000     -74.12930000
H      -45.51340000     -38.33280000     -72.36480000
H      -47.36100000     -34.49300000     -72.15550000
H      -45.17520000     -35.63980000     -75.65760000
H      -44.64220000     -37.81510000     -74.50950000
C      -46.70270000     -33.63240000     -74.63190000
H      -47.23780000     -32.94130000     -73.99480000
H      -47.23850000     -33.73320000     -75.53530000
C      -47.16080000     -36.91370000     -70.81520000
H      -48.01590000     -36.32120000     -70.45560000
H      -47.50420000     -37.99640000     -70.81970000
S      -45.04470000     -32.86260000     -75.00000000
S      -45.86760000     -36.77710000     -69.50260000
C      -44.73330000     -31.77820000     -73.59480000
H      -43.72880000     -31.88370000     -73.31290000
H      -44.74440000     -30.70310000     -73.90940000
C      -45.93710000     -34.97790000     -69.29860000
H      -46.14910000     -34.91840000     -68.26030000
H      -46.84080000     -34.66040000     -69.76290000
C      -44.69380000     -34.28440000     -69.91630000
H      -43.80970000     -34.82210000     -69.52300000
H      -44.78820000     -34.36370000     -70.98660000
C      -45.66340000     -32.06610000     -72.41930000
H      -45.51370000     -33.06470000     -72.30590000
H      -46.71750000     -31.83890000     -72.66420000
C      -45.30150000     -31.21430000     -71.24870000
C      -45.41300000     -29.84500000     -71.32940000
C      -44.73960000     -31.63960000     -69.99730000
H      -45.87610000     -29.38480000     -72.21150000
C      -44.43330000     -30.58450000     -69.17690000
C      -44.45060000     -32.92720000     -69.36770000
C      -43.80820000     -32.76940000     -68.12650000
S      -44.82510000     -29.01550000     -69.93410000
S      -43.56390000     -31.04460000     -67.73000000
H      -43.39150000     -33.43830000     -67.41660000
