40
Properties=species:S:1:pos:R:3 #=T CELL(abcABC):=T 1.889726e+02=T 90.00000=T Traj:=T positionsangstrom=T Step:=T 0=T Bead:=T pbc="F F F"
C      -48.12350000     -30.43370000     -70.14120000
C      -48.08250000     -31.47080000     -71.09130000
C      -47.32380000     -31.31090000     -72.28270000
C      -46.53030000     -30.20770000     -72.50420000
C      -46.43780000     -29.22970000     -71.42720000
C      -47.22350000     -29.38380000     -70.29970000
H      -48.63060000     -30.53670000     -69.21790000
H      -47.48500000     -32.07190000     -73.10460000
H      -45.66930000     -28.41090000     -71.53900000
H      -47.03460000     -28.76160000     -69.43390000
C      -45.72050000     -30.00840000     -73.79320000
H      -45.44220000     -28.94250000     -73.99290000
H      -46.26130000     -30.50090000     -74.53260000
C      -48.78610000     -32.81390000     -70.90800000
H      -49.83320000     -32.77000000     -70.45520000
H      -48.65820000     -33.34940000     -71.80110000
S      -43.95080000     -30.74520000     -73.89570000
S      -47.93950000     -33.83420000     -69.51770000
C      -44.21560000     -32.53350000     -73.41010000
H      -45.23210000     -32.73010000     -73.02940000
H      -44.07980000     -33.15630000     -74.26810000
C      -46.44800000     -32.97580000     -68.86870000
H      -46.39770000     -33.40290000     -67.86910000
H      -46.72360000     -31.91270000     -68.71800000
C      -45.21370000     -33.20900000     -69.56130000
H      -45.22350000     -32.61220000     -70.48850000
H      -44.41060000     -32.67030000     -68.92290000
C      -43.13740000     -32.98840000     -72.47090000
H      -43.13760000     -32.45190000     -71.50200000
H      -42.13620000     -32.81790000     -72.97850000
C      -43.19290000     -34.49030000     -72.13920000
C      -42.54990000     -35.44970000     -72.89140000
C      -43.88990000     -35.05990000     -71.00570000
H      -41.82850000     -35.34330000     -73.76360000
C      -43.67320000     -36.46660000     -71.00050000
C      -44.74310000     -34.64530000     -69.88040000
C      -45.00330000     -35.63690000     -69.06420000
S      -42.85850000     -37.11210000     -72.36390000
S      -44.43940000     -37.25700000     -69.64710000
H      -45.46420000     -35.55570000     -68.13620000
