40
Properties=species:S:1:pos:R:3 #=T CELL(abcABC):=T 1.889726e+02=T 90.00000=T Traj:=T positionsangstrom=T Step:=T 0=T Bead:=T pbc="F F F"
C      -48.00710000     -30.57020000     -70.12910000
C      -47.85700000     -31.59550000     -71.07520000
C      -47.16290000     -31.41810000     -72.25790000
C      -46.58530000     -30.19480000     -72.60190000
C      -46.61010000     -29.13940000     -71.61240000
C      -47.28820000     -29.36290000     -70.38730000
H      -48.74320000     -30.62310000     -69.32390000
H      -47.18490000     -32.17990000     -73.05770000
H      -46.22720000     -28.11710000     -71.88110000
H      -47.52840000     -28.53390000     -69.77220000
C      -45.82880000     -30.06860000     -73.89010000
H      -45.83680000     -28.97750000     -74.13170000
H      -46.50330000     -30.53950000     -74.71060000
C      -48.57920000     -32.87530000     -70.72560000
H      -49.64910000     -32.73160000     -70.53550000
H      -48.65780000     -33.50170000     -71.57200000
S      -44.13670000     -30.84760000     -73.78690000
S      -47.91570000     -33.87280000     -69.37230000
C      -44.35630000     -32.59250000     -73.24600000
H      -45.25870000     -32.58940000     -72.62190000
H      -44.56570000     -33.23160000     -74.11060000
C      -46.41260000     -32.94040000     -68.88000000
H      -46.11030000     -33.34930000     -67.87540000
H      -46.61620000     -31.89250000     -68.76760000
C      -45.24940000     -33.17010000     -69.77490000
H      -45.46710000     -32.88350000     -70.80940000
H      -44.48420000     -32.50190000     -69.50240000
C      -43.13460000     -32.97800000     -72.43940000
H      -43.20970000     -32.41310000     -71.47830000
H      -42.24290000     -32.71750000     -72.99330000
C      -43.20970000     -34.42400000     -72.13090000
C      -42.59490000     -35.30750000     -72.94680000
C      -43.88220000     -35.07230000     -71.02980000
H      -42.02260000     -35.03800000     -73.83080000
C      -43.66710000     -36.44600000     -71.01690000
C      -44.74620000     -34.66020000     -69.92950000
C      -45.05520000     -35.65680000     -69.12040000
S      -42.65370000     -36.96560000     -72.36400000
S      -44.43480000     -37.22040000     -69.68400000
H      -45.65850000     -35.63150000     -68.27930000
