40
Properties=species:S:1:pos:R:3 #=T CELL(abcABC):=T 1.889726e+02=T 90.00000=T Traj:=T positionsangstrom=T Step:=T 0=T Bead:=T pbc="F F F"
C      -40.72590000     -32.92280000     -70.98250000
C      -41.61010000     -34.00750000     -71.20770000
C      -42.41370000     -34.03860000     -72.38610000
C      -42.26590000     -33.03680000     -73.30180000
C      -41.45420000     -31.90710000     -72.99290000
C      -40.66510000     -31.86600000     -71.84080000
H      -40.12750000     -32.95190000     -70.09760000
H      -43.11940000     -34.82420000     -72.55670000
H      -41.39460000     -31.05540000     -73.73450000
H      -40.05290000     -31.00190000     -71.56980000
C      -43.02790000     -33.16300000     -74.62990000
H      -42.62900000     -34.03290000     -75.20870000
H      -42.87200000     -32.31820000     -75.33910000
C      -42.01130000     -34.91450000     -70.00220000
H      -42.59370000     -35.76000000     -70.43400000
H      -41.06820000     -35.36980000     -69.59790000
S      -44.83040000     -33.48860000     -74.25030000
S      -42.93460000     -33.97460000     -68.76580000
C      -45.37760000     -31.84030000     -73.63060000
H      -44.48540000     -31.19210000     -73.70810000
H      -46.22100000     -31.44260000     -74.26530000
C      -44.72930000     -34.18690000     -69.20300000
H      -45.15340000     -35.10950000     -68.76790000
H      -44.83540000     -34.17770000     -70.25730000
C      -45.67360000     -33.12490000     -68.68160000
H      -45.76790000     -33.14920000     -67.55850000
H      -45.35120000     -32.18530000     -69.04700000
C      -45.75770000     -31.93800000     -72.13620000
H      -45.68390000     -30.91020000     -71.85810000
H      -44.97300000     -32.42680000     -71.60240000
C      -47.16070000     -32.54460000     -71.85820000
C      -48.08860000     -32.69750000     -72.85440000
C      -47.62240000     -33.14020000     -70.60210000
H      -48.00400000     -32.38890000     -73.84710000
C      -48.86950000     -33.70140000     -70.69370000
C      -47.06040000     -33.41930000     -69.30440000
C      -47.94540000     -34.16910000     -68.50130000
S      -49.66460000     -33.35240000     -72.27880000
S      -49.43370000     -34.49290000     -69.25320000
H      -47.67830000     -34.54890000     -67.52210000
