40
Properties=species:S:1:pos:R:3 #=T CELL(abcABC):=T 1.889726e+02=T 90.00000=T Traj:=T positionsangstrom=T Step:=T 0=T Bead:=T pbc="F F F"
C      -48.39180000     -31.00970000     -69.62990000
C      -48.18730000     -32.15850000     -70.44400000
C      -47.78450000     -32.05980000     -71.79750000
C      -47.34720000     -30.80310000     -72.26990000
C      -47.39610000     -29.67210000     -71.37100000
C      -48.05210000     -29.74890000     -70.15870000
H      -48.87810000     -31.10650000     -68.68960000
H      -47.75700000     -32.96440000     -72.39180000
H      -47.01000000     -28.63740000     -71.60020000
H      -48.17400000     -28.83450000     -69.56180000
C      -46.91890000     -30.59650000     -73.67770000
H      -47.31860000     -29.66380000     -74.07550000
H      -47.18010000     -31.51250000     -74.26670000
C      -48.40020000     -33.56090000     -69.92250000
H      -49.44070000     -33.73790000     -69.54750000
H      -48.22190000     -34.31670000     -70.65370000
S      -44.95160000     -30.51170000     -73.75270000
S      -47.43360000     -33.84520000     -68.31330000
C      -44.37780000     -32.31270000     -73.59990000
H      -45.13130000     -32.94530000     -73.13100000
H      -44.15430000     -32.84250000     -74.56570000
C      -45.70910000     -33.18880000     -68.53370000
H      -45.06650000     -33.71440000     -67.80400000
H      -45.69600000     -32.11300000     -68.10400000
C      -45.03760000     -33.26340000     -69.87160000
H      -45.66920000     -32.96890000     -70.76830000
H      -44.21870000     -32.54570000     -69.91630000
C      -43.16860000     -32.40720000     -72.69110000
H      -43.45130000     -31.88400000     -71.81110000
H      -42.28050000     -31.97720000     -73.11090000
C      -42.93650000     -33.92440000     -72.44790000
C      -42.29420000     -34.66130000     -73.34630000
C      -43.59290000     -34.75090000     -71.44160000
H      -41.58880000     -34.36600000     -74.14640000
C      -43.16620000     -36.09820000     -71.53670000
C      -44.29360000     -34.60410000     -70.21980000
C      -44.57360000     -35.76290000     -69.57620000
S      -42.28490000     -36.44980000     -73.01980000
S      -43.92690000     -37.16000000     -70.43630000
H      -45.33660000     -36.06290000     -68.93430000
