40
Properties=species:S:1:pos:R:3 #=T CELL(abcABC):=T 1.889726e+02=T 90.00000=T Traj:=T positionsangstrom=T Step:=T 0=T Bead:=T pbc="F F F"
C      -40.90800000     -32.73760000     -70.85390000
C      -41.77940000     -33.84660000     -71.06560000
C      -42.31330000     -34.00930000     -72.36620000
C      -42.18780000     -33.04100000     -73.35070000
C      -41.25400000     -32.01080000     -73.17510000
C      -40.58110000     -31.88470000     -71.94380000
H      -40.45660000     -32.50120000     -69.86150000
H      -42.95480000     -34.81920000     -72.60650000
H      -41.04890000     -31.33490000     -74.06590000
H      -39.92850000     -31.05370000     -71.77660000
C      -43.08530000     -33.18300000     -74.60140000
H      -42.64600000     -34.02560000     -75.18630000
H      -43.01310000     -32.34490000     -75.24870000
C      -41.89940000     -34.80690000     -70.01100000
H      -42.29020000     -35.71570000     -70.40300000
H      -41.03980000     -35.03370000     -69.41180000
S      -44.85000000     -33.53170000     -74.30110000
S      -43.04960000     -34.23780000     -68.59890000
C      -45.38690000     -31.89950000     -73.46420000
H      -44.58230000     -31.21210000     -73.57160000
H      -46.13400000     -31.44810000     -74.13900000
C      -44.67650000     -34.29520000     -69.49110000
H      -45.15300000     -35.25510000     -69.18500000
H      -44.46830000     -34.26780000     -70.58590000
C      -45.54100000     -33.21790000     -69.01870000
H      -45.43290000     -33.12900000     -67.93620000
H      -45.17640000     -32.23150000     -69.35150000
C      -45.79870000     -32.01930000     -71.98040000
H      -45.86990000     -30.98480000     -71.45510000
H      -45.10890000     -32.64610000     -71.39520000
C      -47.20160000     -32.55370000     -71.87310000
C      -48.24270000     -32.54340000     -72.78320000
C      -47.59360000     -33.19090000     -70.64630000
H      -48.17930000     -32.05130000     -73.74890000
C      -48.91710000     -33.60730000     -70.68760000
C      -46.93890000     -33.44770000     -69.35930000
C      -47.82580000     -34.04300000     -68.46930000
S      -49.66530000     -33.33150000     -72.26710000
S      -49.44910000     -34.33500000     -69.24660000
H      -47.64300000     -34.07750000     -67.37330000
