40
Properties=species:S:1:pos:R:3 #=T CELL(abcABC):=T 1.889726e+02=T 90.00000=T Traj:=T positionsangstrom=T Step:=T 0=T Bead:=T pbc="F F F"
C      -48.39650000     -31.47700000     -69.27810000
C      -48.33360000     -32.54340000     -70.19040000
C      -48.16460000     -32.18710000     -71.50240000
C      -47.97190000     -30.90880000     -71.93310000
C      -48.10580000     -29.82180000     -71.04990000
C      -48.29780000     -30.14050000     -69.76420000
H      -48.61570000     -31.64010000     -68.22240000
H      -47.99910000     -32.97410000     -72.28000000
H      -47.97160000     -28.79630000     -71.32900000
H      -48.22150000     -29.29110000     -69.07780000
C      -47.65950000     -30.66820000     -73.36170000
H      -48.02920000     -29.73060000     -73.66890000
H      -48.01360000     -31.37840000     -74.02470000
C      -48.49960000     -34.04260000     -69.77570000
H      -49.35200000     -33.96500000     -69.06700000
H      -48.84900000     -34.62920000     -70.61530000
S      -45.78950000     -30.43270000     -73.65420000
S      -46.96460000     -34.80870000     -69.19050000
C      -45.16850000     -32.13430000     -73.56450000
H      -45.78570000     -32.79550000     -72.95840000
H      -45.19990000     -32.56090000     -74.57730000
C      -45.75850000     -33.40540000     -68.71780000
H      -45.22380000     -33.71980000     -67.80660000
H      -46.27930000     -32.50960000     -68.56650000
C      -44.78440000     -33.08180000     -69.91200000
H      -45.39970000     -32.76260000     -70.70850000
H      -44.29790000     -32.12150000     -69.56810000
C      -43.79180000     -32.31600000     -72.95030000
H      -43.83650000     -31.88960000     -71.96530000
H      -43.02950000     -31.68030000     -73.49880000
C      -43.40300000     -33.80530000     -72.84230000
C      -42.74930000     -34.59900000     -73.79850000
C      -43.31650000     -34.50270000     -71.49730000
H      -42.79400000     -34.46130000     -74.88520000
C      -42.62080000     -35.75030000     -71.58430000
C      -43.81560000     -34.22790000     -70.16810000
C      -43.46570000     -35.20600000     -69.28560000
S      -42.13690000     -36.14290000     -73.21480000
S      -42.51290000     -36.49460000     -70.03590000
H      -43.75280000     -35.28490000     -68.22240000
