40
Properties=species:S:1:pos:R:3 #=T CELL(abcABC):=T 1.889726e+02=T 90.00000=T Traj:=T positionsangstrom=T Step:=T 0=T Bead:=T pbc="F F F"
C      -48.52880000     -31.42250000     -69.48350000
C      -48.32820000     -32.45600000     -70.40670000
C      -47.88170000     -32.12270000     -71.71170000
C      -47.64400000     -30.73930000     -72.01790000
C      -47.81700000     -29.75320000     -71.04180000
C      -48.30520000     -30.08300000     -69.75050000
H      -48.77650000     -31.76390000     -68.46280000
H      -47.79850000     -32.85060000     -72.47510000
H      -47.71360000     -28.65180000     -71.41890000
H      -48.65580000     -29.30840000     -69.04270000
C      -47.24440000     -30.37470000     -73.36550000
H      -47.46680000     -29.41090000     -73.71920000
H      -47.78440000     -31.08960000     -73.97130000
C      -48.49670000     -33.91690000     -69.99770000
H      -49.34290000     -34.19240000     -69.36530000
H      -48.45350000     -34.49030000     -70.91140000
S      -45.38150000     -30.53900000     -73.62660000
S      -47.03690000     -34.50950000     -68.95740000
C      -45.02910000     -32.34650000     -73.35800000
H      -45.72790000     -32.64190000     -72.60820000
H      -45.31310000     -32.91280000     -74.23570000
C      -45.81160000     -33.13290000     -68.76760000
H      -45.24600000     -33.27670000     -67.89100000
H      -46.40210000     -32.23030000     -68.62680000
C      -44.86530000     -33.07940000     -69.97390000
H      -45.52150000     -32.70080000     -70.80520000
H      -44.07670000     -32.30340000     -69.80890000
C      -43.59920000     -32.47440000     -72.88170000
H      -43.42480000     -31.90100000     -71.92090000
H      -42.97260000     -32.10390000     -73.67090000
C      -43.32080000     -33.92430000     -72.77970000
C      -42.65680000     -34.66000000     -73.77240000
C      -43.54080000     -34.67750000     -71.57370000
H      -42.30360000     -34.23300000     -74.72890000
C      -42.88530000     -35.90220000     -71.57950000
C      -44.12250000     -34.29880000     -70.26290000
C      -43.86340000     -35.27950000     -69.32190000
S      -42.23290000     -36.24880000     -73.14650000
S      -42.93320000     -36.67740000     -70.00990000
H      -44.24740000     -35.15750000     -68.29700000
