40
Properties=species:S:1:pos:R:3 #=T CELL(abcABC):=T 1.889726e+02=T 90.00000=T Traj:=T positionsangstrom=T Step:=T 0=T Bead:=T pbc="F F F"
C      -45.11110000     -29.91130000     -68.97540000
C      -45.63980000     -31.18890000     -68.72350000
C      -46.80880000     -31.56480000     -69.34200000
C      -47.51310000     -30.76580000     -70.26310000
C      -47.01230000     -29.47290000     -70.50540000
C      -45.75430000     -29.06030000     -69.93040000
H      -44.06600000     -29.66020000     -68.60100000
H      -47.20120000     -32.56370000     -69.12370000
H      -47.40590000     -28.86480000     -71.32580000
H      -45.37820000     -28.06590000     -70.17890000
C      -48.82780000     -31.14100000     -70.87640000
H      -49.19840000     -30.46320000     -71.69850000
H      -49.61440000     -31.17450000     -70.05170000
C      -45.05430000     -32.15210000     -67.67110000
H      -44.02200000     -32.08910000     -67.60990000
H      -45.57800000     -31.81080000     -66.73250000
S      -48.89550000     -32.89290000     -71.38650000
S      -45.25500000     -34.00140000     -67.97670000
C      -47.49810000     -32.94650000     -72.59780000
H      -47.89340000     -33.33030000     -73.52380000
H      -47.07230000     -31.95590000     -72.80770000
C      -43.97820000     -34.18260000     -69.33650000
H      -43.02260000     -34.24700000     -68.87420000
H      -43.93440000     -33.35600000     -70.04960000
C      -44.26590000     -35.44790000     -70.15670000
H      -44.10860000     -36.33590000     -69.47040000
H      -45.27790000     -35.49040000     -70.39390000
C      -46.50690000     -33.91170000     -72.01320000
H      -46.88580000     -34.87320000     -71.62640000
H      -45.99870000     -33.34480000     -71.19930000
C      -45.42570000     -34.32730000     -72.96230000
C      -45.40480000     -33.97470000     -74.34520000
C      -44.14870000     -35.01600000     -72.66520000
H      -46.22630000     -33.41910000     -74.87110000
C      -43.33180000     -35.12050000     -73.74350000
C      -43.50480000     -35.48900000     -71.44100000
C      -42.30710000     -36.04080000     -71.67040000
S      -43.99580000     -34.46880000     -75.23330000
S      -41.83980000     -36.01540000     -73.35890000
H      -41.61480000     -36.38980000     -70.88310000
