40
Properties=species:S:1:pos:R:3 #=T CELL(abcABC):=T 1.889726e+02=T 90.00000=T Traj:=T positionsangstrom=T Step:=T 0=T Bead:=T pbc="F F F"
C      -41.23630000     -32.32710000     -71.00790000
C      -41.91320000     -33.54040000     -70.95450000
C      -42.71150000     -33.88890000     -72.03090000
C      -42.75490000     -33.15270000     -73.20870000
C      -41.87890000     -32.06150000     -73.33550000
C      -41.16130000     -31.62280000     -72.20920000
H      -40.67560000     -31.97110000     -70.09760000
H      -43.23680000     -34.92510000     -71.94060000
H      -41.89830000     -31.50890000     -74.28440000
H      -40.58210000     -30.66960000     -72.36670000
C      -43.56830000     -33.60640000     -74.39560000
H      -43.68510000     -34.71130000     -74.27250000
H      -42.92150000     -33.56560000     -75.26630000
C      -41.69590000     -34.47170000     -69.77050000
H      -41.84250000     -35.47530000     -70.15380000
H      -40.68610000     -34.35790000     -69.43760000
S      -45.27500000     -32.79380000     -74.69340000
S      -42.75390000     -34.16070000     -68.24860000
C      -45.36050000     -31.43150000     -73.39710000
H      -44.41650000     -30.85130000     -73.33650000
H      -46.12640000     -30.78730000     -73.77970000
C      -44.37380000     -34.55610000     -69.08080000
H      -44.95580000     -35.35550000     -68.53820000
H      -44.10810000     -34.86770000     -70.10290000
C      -45.37050000     -33.36520000     -68.96090000
H      -45.36710000     -33.09460000     -67.90010000
H      -45.04670000     -32.43510000     -69.50590000
C      -45.65830000     -31.99300000     -71.99650000
H      -45.60850000     -31.16950000     -71.27780000
H      -44.86310000     -32.69170000     -71.72080000
C      -47.01830000     -32.67860000     -71.93850000
C      -48.01310000     -32.67590000     -72.91300000
C      -47.40320000     -33.44100000     -70.72690000
H      -48.00280000     -32.30620000     -73.93620000
C      -48.70250000     -33.98510000     -70.81990000
C      -46.77430000     -33.64940000     -69.47620000
C      -47.60220000     -34.32970000     -68.59660000
S      -49.44350000     -33.66970000     -72.37530000
S      -49.13180000     -34.60570000     -69.27380000
H      -47.43840000     -34.71500000     -67.56950000
