40
Properties=species:S:1:pos:R:3 #=T CELL(abcABC):=T 1.889726e+02=T 90.00000=T Traj:=T positionsangstrom=T Step:=T 0=T Bead:=T pbc="F F F"
C      -41.34280000     -32.00780000     -70.94440000
C      -41.77400000     -33.32190000     -70.92580000
C      -42.52920000     -33.86350000     -71.92350000
C      -42.76310000     -33.13930000     -73.14060000
C      -42.28090000     -31.82790000     -73.17240000
C      -41.59280000     -31.27680000     -72.08230000
H      -40.75000000     -31.57830000     -70.16190000
H      -42.82710000     -34.84400000     -71.82350000
H      -42.53750000     -31.23710000     -73.99580000
H      -41.35600000     -30.22080000     -72.15880000
C      -43.74170000     -33.80350000     -74.10170000
H      -44.16500000     -34.68350000     -73.52490000
H      -43.17050000     -34.39640000     -74.86360000
C      -41.48550000     -34.18560000     -69.67040000
H      -41.49960000     -35.14210000     -70.04380000
H      -40.47620000     -34.01920000     -69.34830000
S      -45.05170000     -32.72430000     -74.87990000
S      -42.70470000     -34.17500000     -68.33810000
C      -45.50710000     -31.44640000     -73.61460000
H      -44.73720000     -30.68750000     -73.68920000
H      -46.48620000     -30.97610000     -73.77950000
C      -44.27640000     -34.60300000     -69.23460000
H      -44.70770000     -35.44700000     -68.62340000
H      -44.05580000     -34.85230000     -70.34190000
C      -45.28800000     -33.44060000     -69.09300000
H      -45.28110000     -33.09000000     -68.06850000
H      -44.93930000     -32.60630000     -69.74230000
C      -45.65760000     -32.03860000     -72.18050000
H      -45.58830000     -31.14580000     -71.56330000
H      -44.80640000     -32.71290000     -71.96950000
C      -47.02020000     -32.76860000     -71.93460000
C      -48.06510000     -32.78730000     -72.81140000
C      -47.40910000     -33.39170000     -70.66080000
H      -48.05560000     -32.41960000     -73.81740000
C      -48.65680000     -33.95340000     -70.74870000
C      -46.73250000     -33.78180000     -69.39460000
C      -47.59630000     -34.50250000     -68.61220000
S      -49.48190000     -33.70310000     -72.24350000
S      -49.13120000     -34.88250000     -69.35620000
H      -47.26560000     -34.87260000     -67.59590000
