40
Properties=species:S:1:pos:R:3 #=T CELL(abcABC):=T 1.889726e+02=T 90.00000=T Traj:=T positionsangstrom=T Step:=T 0=T Bead:=T pbc="F F F"
C      -40.74230000     -32.68400000     -71.10480000
C      -41.73890000     -33.65490000     -71.08220000
C      -42.44290000     -33.95530000     -72.21460000
C      -42.25830000     -33.15380000     -73.39390000
C      -41.32250000     -32.12160000     -73.34570000
C      -40.56040000     -31.92980000     -72.20260000
H      -40.16050000     -32.50930000     -70.21540000
H      -43.03530000     -34.86700000     -72.16640000
H      -41.02000000     -31.49570000     -74.17540000
H      -39.74020000     -31.25820000     -72.21970000
C      -43.19670000     -33.36860000     -74.59050000
H      -43.02020000     -34.35000000     -75.06800000
H      -42.86730000     -32.74470000     -75.40710000
C      -41.84590000     -34.60520000     -69.87640000
H      -42.20250000     -35.62270000     -70.12050000
H      -40.85740000     -34.74300000     -69.39340000
S      -44.99320000     -33.22450000     -74.24750000
S      -42.98520000     -34.00560000     -68.51550000
C      -45.20000000     -31.62700000     -73.23680000
H      -44.22360000     -31.11330000     -73.30710000
H      -45.81940000     -30.93120000     -73.82030000
C      -44.55660000     -34.39080000     -69.38690000
H      -44.89100000     -35.41150000     -69.21140000
H      -44.29670000     -34.20670000     -70.43420000
C      -45.62030000     -33.35540000     -68.91340000
H      -45.71950000     -33.41290000     -67.85930000
H      -45.23860000     -32.31580000     -69.03950000
C      -45.77360000     -31.95930000     -71.87240000
H      -45.97560000     -31.09410000     -71.30940000
H      -45.03570000     -32.56460000     -71.30120000
C      -47.14030000     -32.72940000     -71.92530000
C      -48.10240000     -32.74700000     -72.85950000
C      -47.57000000     -33.33080000     -70.67260000
H      -48.12060000     -32.23560000     -73.79970000
C      -48.88760000     -33.74100000     -70.79640000
C      -47.01550000     -33.64560000     -69.44130000
C      -47.91790000     -34.24130000     -68.53000000
S      -49.65300000     -33.41190000     -72.30010000
S      -49.50760000     -34.42050000     -69.26570000
H      -47.76890000     -34.38300000     -67.52350000
