40
Properties=species:S:1:pos:R:3 #=T CELL(abcABC):=T 1.889726e+02=T 90.00000=T Traj:=T positionsangstrom=T Step:=T 0=T Bead:=T pbc="F F F"
C      -45.02500000     -30.05930000     -69.29430000
C      -45.63780000     -31.22250000     -68.79740000
C      -46.91660000     -31.61260000     -69.20570000
C      -47.64510000     -30.82950000     -70.10890000
C      -47.04300000     -29.70220000     -70.66660000
C      -45.75130000     -29.31040000     -70.26510000
H      -44.05820000     -29.85030000     -68.98090000
H      -47.32890000     -32.47960000     -68.68820000
H      -47.53780000     -29.07520000     -71.38120000
H      -45.36980000     -28.35900000     -70.64120000
C      -49.01400000     -31.25890000     -70.61610000
H      -49.25430000     -30.49510000     -71.43610000
H      -49.74300000     -31.30260000     -69.78780000
C      -44.80370000     -32.01330000     -67.75740000
H      -43.74530000     -31.83230000     -67.88380000
H      -45.07660000     -31.64050000     -66.84290000
S      -49.10490000     -33.01570000     -71.42460000
S      -44.84800000     -33.83310000     -67.92570000
C      -47.79020000     -33.08400000     -72.69770000
H      -48.08340000     -33.57540000     -73.64430000
H      -47.38440000     -32.11650000     -72.98190000
C      -43.92040000     -34.15480000     -69.50720000
H      -42.85030000     -34.16300000     -69.31680000
H      -44.12970000     -33.32550000     -70.20830000
C      -44.27670000     -35.52440000     -70.12680000
H      -43.90490000     -36.28320000     -69.47000000
H      -45.44810000     -35.65440000     -70.13790000
C      -46.58090000     -33.86200000     -72.09080000
H      -47.15600000     -34.73980000     -71.82550000
H      -46.25110000     -33.30240000     -71.15780000
C      -45.39800000     -34.15380000     -72.98620000
C      -45.29960000     -33.78790000     -74.28070000
C      -44.18310000     -34.90460000     -72.58730000
H      -46.06030000     -33.15910000     -74.87920000
C      -43.35910000     -35.10410000     -73.67450000
C      -43.67400000     -35.62730000     -71.44540000
C      -42.46360000     -36.27930000     -71.65420000
S      -43.87680000     -34.24900000     -75.10680000
S      -41.87150000     -35.96350000     -73.25720000
H      -41.97330000     -36.91030000     -70.95620000
