40
Properties=species:S:1:pos:R:3 #=T CELL(abcABC):=T 1.889726e+02=T 90.00000=T Traj:=T positionsangstrom=T Step:=T 0=T Bead:=T pbc="F F F"
C      -46.23230000     -31.32370000     -71.99760000
C      -44.98550000     -30.94970000     -71.49660000
C      -44.66340000     -31.13720000     -70.13280000
C      -45.57330000     -31.70360000     -69.30260000
C      -46.90000000     -31.99560000     -69.73500000
C      -47.20090000     -31.79730000     -71.08870000
H      -46.38970000     -31.23610000     -73.15170000
H      -43.70300000     -30.90880000     -69.65610000
H      -47.54260000     -32.53770000     -69.04220000
H      -48.12640000     -32.16560000     -71.54730000
C      -45.16110000     -31.98340000     -67.86650000
H      -45.81020000     -31.46080000     -67.13820000
H      -44.16560000     -31.49130000     -67.76320000
C      -43.99200000     -30.24270000     -72.48630000
H      -44.57520000     -29.76530000     -73.25780000
H      -43.43200000     -29.49540000     -71.88700000
S      -45.08410000     -33.79630000     -67.66540000
S      -43.04370000     -31.52050000     -73.37950000
C      -43.94510000     -34.24100000     -68.98680000
H      -43.92550000     -33.37590000     -69.58180000
H      -42.90860000     -34.31390000     -68.53510000
C      -42.70860000     -32.84730000     -72.19900000
H      -43.46960000     -32.70680000     -71.42760000
H      -41.63940000     -32.71200000     -72.02060000
C      -42.99120000     -34.27440000     -72.83590000
H      -42.41080000     -34.53080000     -73.70050000
H      -42.61110000     -34.96220000     -72.01470000
C      -44.25180000     -35.55050000     -69.78750000
H      -44.45960000     -36.34320000     -69.22360000
H      -43.28400000     -35.79870000     -70.29830000
C      -45.37850000     -35.27260000     -70.64890000
C      -46.62440000     -35.62460000     -70.11640000
C      -45.40010000     -34.70600000     -71.99220000
H      -46.85550000     -36.09630000     -69.15180000
C      -46.74240000     -34.75610000     -72.47690000
C      -44.47280000     -34.39870000     -73.05920000
C      -45.13110000     -34.30540000     -74.27860000
S      -47.93260000     -35.34170000     -71.29960000
S      -46.84710000     -34.49000000     -74.21060000
H      -44.63720000     -34.17990000     -75.22580000
