40
Properties=species:S:1:pos:R:3 #=T CELL(abcABC):=T 1.889726e+02=T 90.00000=T Traj:=T positionsangstrom=T Step:=T 0=T Bead:=T pbc="F F F"
C      -46.46510000     -31.46640000     -72.22200000
C      -45.18080000     -30.98410000     -72.01640000
C      -44.69210000     -30.94780000     -70.72900000
C      -45.48260000     -31.37800000     -69.61970000
C      -46.81950000     -31.74870000     -69.85080000
C      -47.31380000     -31.75330000     -71.15850000
H      -46.87920000     -31.51190000     -73.24420000
H      -43.69740000     -30.58710000     -70.51200000
H      -47.48410000     -32.12880000     -69.07700000
H      -48.36930000     -32.12440000     -71.45490000
C      -45.04460000     -31.47210000     -68.19730000
H      -45.83720000     -31.05550000     -67.59650000
H      -44.20420000     -30.89720000     -68.01820000
C      -44.51700000     -30.42230000     -73.27340000
H      -45.22950000     -29.99650000     -73.88780000
H      -43.81010000     -29.61770000     -73.07500000
S      -44.76800000     -33.25130000     -67.70140000
S      -43.63540000     -31.72940000     -74.29870000
C      -43.40580000     -33.74410000     -68.89890000
H      -43.25260000     -32.92520000     -69.57240000
H      -42.52780000     -33.95380000     -68.21160000
C      -42.74270000     -32.79720000     -72.98450000
H      -43.03470000     -32.43960000     -72.01550000
H      -41.61410000     -32.69970000     -72.96230000
C      -43.14450000     -34.29130000     -72.98460000
H      -42.70790000     -34.88390000     -73.80690000
H      -42.61980000     -34.77040000     -72.14170000
C      -43.67430000     -35.07360000     -69.53990000
H      -43.45080000     -35.87370000     -68.74150000
H      -42.94720000     -35.19180000     -70.29350000
C      -44.99470000     -35.20870000     -70.22070000
C      -46.15880000     -35.50260000     -69.55850000
C      -45.35260000     -34.93710000     -71.62510000
H      -46.10610000     -35.70430000     -68.45370000
C      -46.68610000     -35.21510000     -71.92390000
C      -44.66020000     -34.50650000     -72.80420000
C      -45.50340000     -34.47370000     -73.87550000
S      -47.55400000     -35.80740000     -70.55660000
S      -47.17100000     -34.91820000     -73.52210000
H      -45.28920000     -34.11830000     -74.85880000
