40
Properties=species:S:1:pos:R:3 #=T CELL(abcABC):=T 1.889726e+02=T 90.00000=T Traj:=T positionsangstrom=T Step:=T 0=T Bead:=T pbc="F F F"
C      -48.01480000     -32.06190000     -69.05410000
C      -46.93490000     -31.17690000     -69.42790000
C      -45.61230000     -31.59010000     -69.23640000
C      -45.25230000     -32.76580000     -68.62120000
C      -46.25540000     -33.66710000     -68.25530000
C      -47.54890000     -33.26760000     -68.46870000
H      -49.12410000     -31.90280000     -69.09360000
H      -44.81450000     -30.89520000     -69.45240000
H      -45.98290000     -34.69380000     -68.10150000
H      -48.36130000     -33.96050000     -68.16530000
C      -43.83570000     -33.02580000     -68.16480000
H      -43.75910000     -33.35550000     -67.09150000
H      -43.21340000     -32.04800000     -68.09750000
C      -47.18850000     -29.80130000     -69.98990000
H      -48.28770000     -29.62760000     -69.79010000
H      -46.60510000     -29.03490000     -69.49770000
S      -42.87010000     -34.27540000     -69.16040000
S      -46.99330000     -29.61660000     -71.81000000
C      -42.03110000     -33.29210000     -70.47050000
H      -41.75180000     -32.33830000     -70.18960000
H      -41.22940000     -33.93080000     -70.88880000
C      -47.28930000     -31.26010000     -72.64000000
H      -47.34270000     -31.02240000     -73.70170000
H      -48.24880000     -31.72910000     -72.34690000
C      -45.99610000     -32.14320000     -72.35480000
H      -45.22050000     -31.49610000     -72.71170000
H      -45.81930000     -32.12580000     -71.24720000
C      -42.86930000     -33.06160000     -71.71990000
H      -42.11970000     -32.61620000     -72.39770000
H      -43.55150000     -32.25390000     -71.57020000
C      -43.55110000     -34.29950000     -72.25770000
C      -42.86630000     -35.50060000     -72.30620000
C      -44.82680000     -34.46420000     -72.85230000
H      -41.80900000     -35.67170000     -72.07100000
C      -45.06200000     -35.66190000     -73.45800000
C      -46.01810000     -33.55060000     -72.95090000
C      -47.03730000     -34.08050000     -73.73710000
S      -43.70660000     -36.78530000     -73.14810000
S      -46.67070000     -35.75740000     -74.26350000
H      -48.00230000     -33.52010000     -73.97450000
