40
Properties=species:S:1:pos:R:3 #=T CELL(abcABC):=T 1.889726e+02=T 90.00000=T Traj:=T positionsangstrom=T Step:=T 0=T Bead:=T pbc="F F F"
C      -40.80890000     -31.77430000     -70.77660000
C      -41.68490000     -32.86860000     -70.81550000
C      -42.50950000     -33.09340000     -71.96370000
C      -42.45430000     -32.12780000     -73.04550000
C      -41.68470000     -30.96500000     -72.90950000
C      -40.81420000     -30.84940000     -71.80220000
H      -40.06010000     -31.75710000     -70.04570000
H      -43.23510000     -33.93430000     -72.06480000
H      -41.84450000     -30.12760000     -73.60240000
H      -40.27540000     -29.91910000     -71.61630000
C      -43.24800000     -32.46030000     -74.34400000
H      -42.77910000     -33.36320000     -74.77660000
H      -43.17050000     -31.63940000     -75.02580000
C      -41.61690000     -33.79930000     -69.71530000
H      -41.71040000     -34.85180000     -70.06110000
H      -40.69280000     -33.78600000     -69.16590000
S      -45.01200000     -32.98930000     -74.17810000
S      -43.00230000     -33.44480000     -68.52490000
C      -45.76080000     -31.59430000     -73.35460000
H      -44.95290000     -30.75840000     -73.14820000
H      -46.62040000     -31.29940000     -73.82840000
C      -44.49990000     -34.17750000     -69.36010000
H      -44.58640000     -35.26760000     -69.23920000
H      -44.46630000     -34.08490000     -70.42740000
C      -45.77260000     -33.45110000     -68.93070000
H      -45.88820000     -33.46960000     -67.85660000
H      -45.74600000     -32.37510000     -69.27550000
C      -46.19550000     -31.99860000     -71.93020000
H      -46.59360000     -31.08290000     -71.46390000
H      -45.40680000     -32.24830000     -71.28490000
C      -47.29410000     -33.04770000     -71.90800000
C      -48.16240000     -33.19150000     -72.93620000
C      -47.57840000     -33.86700000     -70.76750000
H      -48.28730000     -32.66930000     -73.85610000
C      -48.70330000     -34.67270000     -70.99900000
C      -47.00410000     -34.11670000     -69.44840000
C      -47.64370000     -35.18920000     -68.84650000
S      -49.41030000     -34.52860000     -72.56510000
S      -49.02150000     -35.81620000     -69.71130000
H      -47.32230000     -35.63850000     -67.90730000
