40
Properties=species:S:1:pos:R:3 #=T CELL(abcABC):=T 1.889726e+02=T 90.00000=T Traj:=T positionsangstrom=T Step:=T 0=T Bead:=T pbc="F F F"
C      -41.30040000     -31.13520000     -70.65020000
C      -41.68450000     -32.48630000     -70.63660000
C      -42.18200000     -33.09170000     -71.77350000
C      -42.37670000     -32.35230000     -72.96980000
C      -41.93110000     -31.03820000     -72.97890000
C      -41.39160000     -30.44630000     -71.85520000
H      -40.99760000     -30.52210000     -69.83610000
H      -42.58120000     -34.13000000     -71.76880000
H      -41.92130000     -30.52650000     -73.96250000
H      -40.93460000     -29.44440000     -71.79400000
C      -43.18290000     -33.05250000     -74.04730000
H      -42.87950000     -34.12650000     -74.12630000
H      -43.01940000     -32.75400000     -75.06650000
C      -41.61950000     -33.33730000     -69.38210000
H      -41.33720000     -34.36050000     -69.73850000
H      -40.88410000     -33.01410000     -68.69350000
S      -45.04780000     -33.16250000     -73.73270000
S      -43.18140000     -33.28900000     -68.32040000
C      -45.49110000     -31.59060000     -72.99960000
H      -44.57350000     -30.93180000     -72.85840000
H      -45.96470000     -30.92160000     -73.72750000
C      -44.49330000     -34.04750000     -69.39150000
H      -44.34580000     -35.19260000     -69.44650000
H      -44.38200000     -33.67460000     -70.35290000
C      -45.89720000     -33.69970000     -68.86980000
H      -45.94310000     -34.01370000     -67.80270000
H      -45.97630000     -32.55680000     -68.90740000
C      -46.30840000     -31.77630000     -71.74940000
H      -46.80250000     -30.77310000     -71.57850000
H      -45.67640000     -31.95890000     -70.93690000
C      -47.28470000     -32.87000000     -71.82860000
C      -48.10230000     -33.01810000     -72.91150000
C      -47.56780000     -33.90880000     -70.85400000
H      -48.16520000     -32.33290000     -73.74730000
C      -48.50570000     -34.81640000     -71.38920000
C      -47.04470000     -34.34610000     -69.62010000
C      -47.63680000     -35.52620000     -69.19420000
S      -49.13930000     -34.42360000     -72.95490000
S      -48.86160000     -36.19880000     -70.31580000
H      -47.39930000     -36.05170000     -68.30780000
