40
Properties=species:S:1:pos:R:3 #=T CELL(abcABC):=T 1.889726e+02=T 90.00000=T Traj:=T positionsangstrom=T Step:=T 0=T Bead:=T pbc="F F F"
C      -40.91090000     -31.55100000     -70.76220000
C      -41.58440000     -32.78910000     -70.84120000
C      -42.25010000     -33.23390000     -72.00460000
C      -42.34150000     -32.31450000     -73.10270000
C      -41.77860000     -31.01980000     -72.96120000
C      -41.09740000     -30.63350000     -71.83590000
H      -40.42020000     -31.28900000     -69.83220000
H      -42.73210000     -34.21710000     -72.09290000
H      -41.74850000     -30.38640000     -73.80630000
H      -40.54410000     -29.69580000     -71.89120000
C      -43.11950000     -32.63660000     -74.37860000
H      -42.66770000     -33.36290000     -75.10380000
H      -43.24370000     -31.67590000     -74.90070000
C      -41.67930000     -33.68430000     -69.61100000
H      -41.76440000     -34.75700000     -69.85380000
H      -40.84880000     -33.44340000     -68.99060000
S      -44.91030000     -33.10110000     -73.96200000
S      -43.17830000     -33.19270000     -68.61430000
C      -45.65320000     -31.59940000     -73.23300000
H      -44.92870000     -30.80190000     -73.26140000
H      -46.42900000     -31.19960000     -73.90610000
C      -44.53420000     -34.04720000     -69.50530000
H      -44.41610000     -35.19980000     -69.43330000
H      -44.51140000     -33.70550000     -70.48940000
C      -45.82790000     -33.68040000     -68.82440000
H      -45.75330000     -34.04260000     -67.80530000
H      -45.91820000     -32.62310000     -68.68420000
C      -46.23040000     -31.91180000     -71.87530000
H      -46.80460000     -31.03120000     -71.52220000
H      -45.38900000     -32.16170000     -71.12280000
C      -47.28960000     -33.04110000     -71.86790000
C      -48.24060000     -33.12230000     -72.81060000
C      -47.54690000     -33.95470000     -70.77780000
H      -48.34730000     -32.57920000     -73.72930000
C      -48.61800000     -34.76020000     -71.06570000
C      -47.04580000     -34.27340000     -69.43710000
C      -47.71950000     -35.30260000     -68.79190000
S      -49.26500000     -34.50870000     -72.63610000
S      -49.06900000     -35.87430000     -69.84410000
H      -47.54110000     -35.64030000     -67.75690000
