40
Properties=species:S:1:pos:R:3 #=T CELL(abcABC):=T 1.889726e+02=T 90.00000=T Traj:=T positionsangstrom=T Step:=T 0=T Bead:=T pbc="F F F"
C      -41.24770000     -31.20340000     -70.63950000
C      -41.76330000     -32.52000000     -70.46040000
C      -42.46850000     -33.11370000     -71.53110000
C      -42.54990000     -32.48050000     -72.79010000
C      -42.05760000     -31.15530000     -72.92830000
C      -41.48650000     -30.52790000     -71.82050000
H      -40.77870000     -30.66840000     -69.89380000
H      -42.77200000     -34.15500000     -71.53690000
H      -42.29740000     -30.61130000     -73.87590000
H      -41.11020000     -29.50940000     -71.81810000
C      -43.16050000     -33.05220000     -74.05750000
H      -42.83420000     -34.07900000     -74.25160000
H      -42.83460000     -32.43850000     -74.90130000
C      -41.67800000     -33.19030000     -69.17260000
H      -41.31380000     -34.22860000     -69.30160000
H      -41.03210000     -32.71740000     -68.45200000
S      -44.97960000     -33.16610000     -73.95230000
S      -43.21760000     -33.31630000     -68.14200000
C      -45.48300000     -31.51790000     -73.16610000
H      -44.60610000     -30.92010000     -73.10540000
H      -46.23550000     -31.07710000     -73.91180000
C      -44.44180000     -34.06850000     -69.29680000
H      -44.28280000     -35.14240000     -69.32960000
H      -44.28200000     -33.62250000     -70.27800000
C      -45.83900000     -33.77780000     -68.78210000
H      -45.89530000     -34.21000000     -67.78360000
H      -45.94150000     -32.71890000     -68.58430000
C      -46.20340000     -31.76830000     -71.79580000
H      -46.66480000     -30.89210000     -71.41360000
H      -45.36440000     -32.13300000     -71.14770000
C      -47.27250000     -32.84090000     -71.91600000
C      -48.13940000     -32.89300000     -72.96100000
C      -47.53680000     -33.96780000     -71.00950000
H      -48.11310000     -32.24550000     -73.86160000
C      -48.51280000     -34.82180000     -71.47770000
C      -46.89540000     -34.40640000     -69.74400000
C      -47.48170000     -35.59580000     -69.33330000
S      -49.22880000     -34.27720000     -72.91830000
S      -48.72680000     -36.17110000     -70.41790000
H      -47.29730000     -36.16290000     -68.41710000
