40
Properties=species:S:1:pos:R:3 #=T CELL(abcABC):=T 1.889726e+02=T 90.00000=T Traj:=T positionsangstrom=T Step:=T 0=T Bead:=T pbc="F F F"
C      -44.92270000     -30.24260000     -69.60280000
C      -45.51810000     -31.23670000     -68.78160000
C      -46.80310000     -31.70230000     -69.08220000
C      -47.62710000     -31.09950000     -70.02830000
C      -47.04900000     -30.17020000     -70.88590000
C      -45.69990000     -29.74570000     -70.67450000
H      -43.96810000     -29.72010000     -69.38920000
H      -47.15530000     -32.56100000     -68.53620000
H      -47.69190000     -29.68890000     -71.71040000
H      -45.16480000     -29.12970000     -71.36160000
C      -49.05040000     -31.53900000     -70.34700000
H      -49.59200000     -30.85130000     -70.94660000
H      -49.67700000     -31.64610000     -69.45660000
C      -44.65440000     -31.77580000     -67.70160000
H      -43.71310000     -31.26660000     -67.77480000
H      -45.14100000     -31.72670000     -66.68760000
S      -49.07120000     -33.16480000     -71.20460000
S      -44.50580000     -33.59930000     -67.79520000
C      -47.79320000     -32.99290000     -72.52060000
H      -48.30900000     -33.30050000     -73.43010000
H      -47.45220000     -31.94020000     -72.66260000
C      -43.98640000     -33.94030000     -69.51560000
H      -42.86490000     -33.75030000     -69.55660000
H      -44.36080000     -33.17150000     -70.16120000
C      -44.24760000     -35.36160000     -70.06540000
H      -43.72340000     -36.13060000     -69.37150000
H      -45.34060000     -35.65530000     -70.08450000
C      -46.62120000     -33.94700000     -72.12560000
H      -47.08800000     -34.87080000     -71.86350000
H      -46.26150000     -33.68420000     -71.14740000
C      -45.40110000     -34.00550000     -72.96140000
C      -45.46300000     -33.70120000     -74.29230000
C      -44.17360000     -34.73840000     -72.59790000
H      -46.35110000     -33.17000000     -74.77830000
C      -43.41380000     -34.92120000     -73.75900000
C      -43.72620000     -35.42440000     -71.41480000
C      -42.54560000     -36.11440000     -71.71740000
S      -44.05220000     -34.18400000     -75.19040000
S      -42.08910000     -36.02780000     -73.41710000
H      -41.97880000     -36.71810000     -70.99480000
