40
Properties=species:S:1:pos:R:3 #=T CELL(abcABC):=T 1.889726e+02=T 90.00000=T Traj:=T positionsangstrom=T Step:=T 0=T Bead:=T pbc="F F F"
C      -41.64850000     -31.24460000     -69.95510000
C      -41.90780000     -32.56390000     -70.24340000
C      -42.26100000     -32.93230000     -71.56390000
C      -42.29740000     -31.99680000     -72.61130000
C      -41.95440000     -30.69090000     -72.30950000
C      -41.57470000     -30.29790000     -70.97210000
H      -41.27670000     -31.09760000     -68.94100000
H      -42.46720000     -34.03650000     -71.84670000
H      -41.78970000     -29.96270000     -73.12890000
H      -41.27260000     -29.31810000     -70.69980000
C      -42.91880000     -32.27020000     -73.97020000
H      -42.38010000     -33.06180000     -74.40530000
H      -42.74690000     -31.35420000     -74.64580000
C      -41.73200000     -33.55350000     -69.17580000
H      -41.23000000     -34.44860000     -69.54500000
H      -41.08150000     -33.13670000     -68.34650000
S      -44.64390000     -32.91030000     -73.80450000
S      -43.28600000     -33.96570000     -68.28880000
C      -45.48530000     -31.42900000     -73.03680000
H      -44.67220000     -30.68730000     -72.83150000
H      -46.03670000     -30.93620000     -73.79180000
C      -44.62890000     -34.34820000     -69.48610000
H      -44.69500000     -35.34500000     -69.64640000
H      -44.47050000     -34.00310000     -70.51610000
C      -46.03130000     -33.87450000     -68.98810000
H      -46.10100000     -34.21000000     -67.98950000
H      -46.11020000     -32.77120000     -69.06300000
C      -46.24730000     -31.77710000     -71.69120000
H      -46.78110000     -30.97170000     -71.30310000
H      -45.54340000     -31.99560000     -70.85720000
C      -47.13780000     -32.92080000     -72.02870000
C      -47.93050000     -32.98590000     -73.14760000
C      -47.52320000     -34.03890000     -71.16770000
H      -47.98320000     -32.14700000     -73.84870000
C      -48.48290000     -34.91060000     -71.75560000
C      -47.13510000     -34.46910000     -69.82270000
C      -47.84180000     -35.57740000     -69.44920000
S      -49.04250000     -34.31660000     -73.28820000
S      -48.96260000     -36.18330000     -70.67570000
H      -47.74150000     -36.03620000     -68.48550000
