40
Properties=species:S:1:pos:R:3 #=T CELL(abcABC):=T 1.889726e+02=T 90.00000=T Traj:=T positionsangstrom=T Step:=T 0=T Bead:=T pbc="F F F"
C      -46.90120000     -32.40450000     -72.97830000
C      -46.02070000     -31.37800000     -72.61630000
C      -45.98860000     -30.99860000     -71.31100000
C      -46.80940000     -31.52100000     -70.28660000
C      -47.66000000     -32.62560000     -70.66910000
C      -47.67810000     -33.00080000     -71.99660000
H      -46.77550000     -32.85260000     -73.89000000
H      -45.31180000     -30.13750000     -71.14570000
H      -48.20460000     -33.18960000     -69.89980000
H      -48.39910000     -33.71680000     -72.33260000
C      -46.72990000     -31.06030000     -68.84510000
H      -47.65110000     -30.86110000     -68.32920000
H      -46.35940000     -29.94470000     -68.80300000
C      -45.15700000     -30.69020000     -73.65420000
H      -45.90730000     -30.51950000     -74.53390000
H      -44.70500000     -29.76130000     -73.42360000
S      -45.67750000     -32.15230000     -67.80290000
S      -43.71120000     -31.71950000     -74.25970000
C      -44.01730000     -32.26830000     -68.83940000
H      -44.28550000     -31.75280000     -69.78300000
H      -43.24220000     -31.71560000     -68.29190000
C      -42.77670000     -32.09160000     -72.79140000
H      -43.14250000     -31.48390000     -71.97410000
H      -41.72850000     -31.68520000     -72.93330000
C      -42.63530000     -33.58450000     -72.28050000
H      -42.04040000     -34.10970000     -72.95320000
H      -41.97560000     -33.49480000     -71.33420000
C      -43.69620000     -33.71540000     -69.10440000
H      -43.55340000     -34.27190000     -68.16450000
H      -42.74660000     -33.75860000     -69.73590000
C      -44.70060000     -34.57200000     -69.80850000
C      -45.61870000     -35.30880000     -69.10760000
C      -44.74630000     -34.77620000     -71.22200000
H      -45.86700000     -35.40990000     -68.05030000
C      -45.74520000     -35.76000000     -71.56140000
C      -43.88980000     -34.43040000     -72.28700000
C      -44.14030000     -35.17710000     -73.39290000
S      -46.64630000     -36.17400000     -70.21510000
S      -45.73640000     -36.08350000     -73.26130000
H      -43.72640000     -35.02510000     -74.38110000
