40
Properties=species:S:1:pos:R:3 #=T CELL(abcABC):=T 1.889726e+02=T 90.00000=T Traj:=T positionsangstrom=T Step:=T 0=T Bead:=T pbc="F F F"
C      -41.52100000     -31.25300000     -70.13120000
C      -41.88820000     -32.56690000     -70.28720000
C      -42.22790000     -32.97490000     -71.59230000
C      -42.39840000     -32.09270000     -72.67100000
C      -42.19840000     -30.71210000     -72.41950000
C      -41.80620000     -30.30420000     -71.11900000
H      -41.22720000     -30.94220000     -69.17440000
H      -42.33130000     -34.05340000     -71.67210000
H      -42.39780000     -30.13580000     -73.33130000
H      -41.61940000     -29.25440000     -70.88690000
C      -42.84250000     -32.63990000     -74.00230000
H      -42.39550000     -33.63240000     -74.25850000
H      -42.68620000     -31.90030000     -74.74170000
C      -41.76010000     -33.63290000     -69.21350000
H      -41.65930000     -34.58210000     -69.73280000
H      -41.01400000     -33.49450000     -68.48580000
S      -44.71690000     -32.93400000     -73.81870000
S      -43.32770000     -33.68030000     -68.17270000
C      -45.31200000     -31.45930000     -72.88630000
H      -44.47400000     -30.74850000     -72.77470000
H      -46.06440000     -30.92380000     -73.56760000
C      -44.53510000     -34.27560000     -69.46520000
H      -44.53860000     -35.38450000     -69.50610000
H      -44.22460000     -33.77760000     -70.46090000
C      -45.90550000     -33.89930000     -68.97400000
H      -46.14880000     -34.21280000     -67.91510000
H      -46.02620000     -32.82270000     -69.07030000
C      -46.15780000     -31.84310000     -71.69300000
H      -46.68790000     -30.92460000     -71.21880000
H      -45.57670000     -32.23740000     -70.85170000
C      -47.25780000     -32.90040000     -72.00590000
C      -47.98830000     -32.96590000     -73.16380000
C      -47.54690000     -33.99990000     -71.17380000
H      -48.06790000     -32.21790000     -73.98210000
C      -48.55210000     -34.79080000     -71.65130000
C      -47.03060000     -34.44030000     -69.91400000
C      -47.55320000     -35.62790000     -69.50910000
S      -49.13580000     -34.32820000     -73.21250000
S      -48.84820000     -36.19070000     -70.65690000
H      -47.32430000     -36.06800000     -68.57980000
