40
Properties=species:S:1:pos:R:3 #=T CELL(abcABC):=T 1.889726e+02=T 90.00000=T Traj:=T positionsangstrom=T Step:=T 0=T Bead:=T pbc="F F F"
C      -42.03190000     -31.38560000     -69.58860000
C      -42.21620000     -32.67170000     -70.21900000
C      -42.33180000     -32.66640000     -71.62170000
C      -42.36290000     -31.47760000     -72.38270000
C      -42.39570000     -30.24390000     -71.69340000
C      -42.21480000     -30.18150000     -70.29870000
H      -41.91970000     -31.47840000     -68.49690000
H      -42.47840000     -33.64300000     -72.09220000
H      -42.70050000     -29.35200000     -72.32130000
H      -42.18900000     -29.25540000     -69.71570000
C      -42.44670000     -31.60940000     -73.84480000
H      -41.65920000     -32.28880000     -74.14950000
H      -42.40890000     -30.61270000     -74.32240000
C      -42.14960000     -34.06880000     -69.49640000
H      -42.27360000     -34.92300000     -70.14310000
H      -41.15390000     -34.20730000     -68.95710000
S      -44.06420000     -32.34680000     -74.21960000
S      -43.36250000     -34.18720000     -68.09440000
C      -45.31740000     -31.30710000     -73.19720000
H      -44.96830000     -30.32090000     -72.75120000
H      -46.15080000     -31.13250000     -73.92800000
C      -44.82010000     -34.98340000     -68.94250000
H      -45.02100000     -35.94760000     -68.28270000
H      -44.52530000     -35.23890000     -69.95980000
C      -46.06060000     -34.01260000     -69.01900000
H      -46.48940000     -33.97900000     -68.05020000
H      -45.76580000     -33.01550000     -69.25110000
C      -45.89440000     -32.15650000     -71.99150000
H      -46.35760000     -31.42130000     -71.26040000
H      -45.10330000     -32.67130000     -71.38750000
C      -46.93110000     -33.22270000     -72.31800000
C      -47.63400000     -33.31110000     -73.48940000
C      -47.34320000     -34.20260000     -71.34910000
H      -47.48770000     -32.63860000     -74.36940000
C      -48.45330000     -34.89810000     -71.78740000
C      -47.07120000     -34.55740000     -69.92000000
C      -47.95800000     -35.52040000     -69.46520000
S      -48.92020000     -34.51700000     -73.42200000
S      -49.18500000     -36.02260000     -70.66470000
H      -47.89840000     -35.91660000     -68.46080000
