40
Properties=species:S:1:pos:R:3 #=T CELL(abcABC):=T 1.889726e+02=T 90.00000=T Traj:=T positionsangstrom=T Step:=T 0=T Bead:=T pbc="F F F"
C      -43.97790000     -35.77380000     -68.89370000
C      -43.66160000     -34.41240000     -68.72730000
C      -42.76430000     -33.74330000     -69.50520000
C      -42.17210000     -34.48070000     -70.59950000
C      -42.51200000     -35.81350000     -70.80060000
C      -43.30780000     -36.50400000     -69.85820000
H      -44.47910000     -36.42070000     -68.19720000
H      -42.33200000     -32.80780000     -69.23520000
H      -42.18250000     -36.27820000     -71.69890000
H      -43.49080000     -37.60200000     -69.93620000
C      -41.36620000     -33.69620000     -71.58570000
H      -40.26600000     -33.98330000     -71.47440000
H      -41.43070000     -32.56340000     -71.41040000
C      -44.41480000     -33.73420000     -67.60410000
H      -43.99990000     -34.06650000     -66.62430000
H      -44.52710000     -32.66660000     -67.59200000
S      -41.66580000     -34.00800000     -73.35140000
S      -46.12000000     -34.39300000     -67.38530000
C      -43.29010000     -33.16120000     -73.83990000
H      -42.98940000     -32.10320000     -73.75930000
H      -43.43100000     -33.43360000     -74.86260000
C      -47.10670000     -33.65960000     -68.76160000
H      -47.44390000     -32.66340000     -68.36060000
H      -48.04550000     -34.30620000     -68.84080000
C      -46.33710000     -33.52880000     -70.12280000
H      -45.59980000     -32.73850000     -70.11770000
H      -45.82300000     -34.50710000     -70.34340000
C      -44.49970000     -33.43550000     -72.95340000
H      -44.42260000     -33.14930000     -71.86300000
H      -44.84300000     -34.46430000     -72.98850000
C      -45.77660000     -32.66660000     -73.27880000
C      -45.90300000     -31.92130000     -74.38260000
C      -46.96780000     -32.69610000     -72.48020000
H      -45.30540000     -31.99690000     -75.35160000
C      -47.88760000     -31.83860000     -72.99900000
C      -47.36490000     -32.98090000     -71.16030000
C      -48.60420000     -32.49630000     -70.81070000
S      -47.52360000     -31.23030000     -74.59810000
S      -49.26470000     -31.53350000     -72.07740000
H      -49.21980000     -32.65790000     -70.00840000
