40
Properties=species:S:1:pos:R:3 #=T CELL(abcABC):=T 1.889726e+02=T 90.00000=T Traj:=T positionsangstrom=T Step:=T 0=T Bead:=T pbc="F F F"
C      -46.78100000     -33.04890000     -73.58030000
C      -46.25940000     -31.70860000     -73.37970000
C      -46.57100000     -31.12710000     -72.12840000
C      -47.22730000     -31.86820000     -71.09100000
C      -47.61410000     -33.20550000     -71.26520000
C      -47.42650000     -33.70820000     -72.55940000
H      -46.65290000     -33.53460000     -74.48920000
H      -46.21800000     -30.09900000     -71.87760000
H      -48.07990000     -33.87940000     -70.56880000
H      -47.74570000     -34.70990000     -72.76290000
C      -47.50640000     -31.22770000     -69.74490000
H      -48.64310000     -31.15830000     -69.55460000
H      -47.15790000     -30.20720000     -69.76270000
C      -45.24210000     -31.13830000     -74.38720000
H      -45.29110000     -31.55540000     -75.38880000
H      -45.41150000     -30.01580000     -74.40530000
S      -46.63330000     -32.13600000     -68.37400000
S      -43.37570000     -31.48300000     -73.93970000
C      -44.89480000     -31.92690000     -68.82590000
H      -44.79330000     -31.66590000     -69.91610000
H      -44.38220000     -31.14610000     -68.31650000
C      -43.05620000     -31.46710000     -72.08230000
H      -43.96920000     -31.14130000     -71.50560000
H      -42.23030000     -30.77640000     -71.74970000
C      -42.62870000     -32.83420000     -71.52620000
H      -41.64760000     -33.10370000     -71.84470000
H      -42.52710000     -32.68140000     -70.51280000
C      -44.12780000     -33.25240000     -68.52800000
H      -44.18300000     -33.47070000     -67.47860000
H      -43.05880000     -32.97930000     -68.71160000
C      -44.70400000     -34.35200000     -69.33420000
C      -45.67290000     -35.19120000     -68.80710000
C      -44.46960000     -34.65680000     -70.71410000
H      -46.06880000     -35.13190000     -67.78740000
C      -45.10310000     -35.80460000     -71.15640000
C      -43.50410000     -34.11080000     -71.75260000
C      -43.53340000     -34.89860000     -72.83210000
S      -46.31120000     -36.35550000     -69.97940000
S      -44.75170000     -36.14630000     -72.88050000
H      -43.00080000     -34.75300000     -73.72210000
