40
Properties=species:S:1:pos:R:3 #=T CELL(abcABC):=T 1.889726e+02=T 90.00000=T Traj:=T positionsangstrom=T Step:=T 0=T Bead:=T pbc="F F F"
C      -46.64210000     -33.06610000     -73.37230000
C      -45.97590000     -31.91520000     -72.93230000
C      -46.33460000     -31.39590000     -71.69940000
C      -47.22050000     -31.98560000     -70.79330000
C      -47.72360000     -33.25150000     -71.16530000
C      -47.45850000     -33.73130000     -72.43900000
H      -46.47380000     -33.58890000     -74.40040000
H      -46.11970000     -30.34290000     -71.44880000
H      -48.41240000     -33.87870000     -70.58520000
H      -47.94150000     -34.60020000     -72.88530000
C      -47.65690000     -31.28430000     -69.53640000
H      -48.71180000     -31.51510000     -69.24310000
H      -47.55140000     -30.20420000     -69.57970000
C      -45.03970000     -31.15410000     -73.82780000
H      -45.42120000     -31.23240000     -74.86640000
H      -45.04970000     -30.04880000     -73.68060000
S      -46.66810000     -31.97830000     -68.09690000
S      -43.33840000     -31.80570000     -74.00390000
C      -44.91310000     -31.82760000     -68.79180000
H      -44.95080000     -31.67300000     -69.86200000
H      -44.46610000     -31.04300000     -68.23410000
C      -42.66490000     -31.59410000     -72.30010000
H      -43.32420000     -31.07480000     -71.58850000
H      -41.71350000     -31.03480000     -72.38350000
C      -42.39800000     -32.99410000     -71.71850000
H      -41.67110000     -33.43540000     -72.33690000
H      -41.99080000     -32.99720000     -70.72560000
C      -44.27090000     -33.13820000     -68.63320000
H      -44.27320000     -33.46870000     -67.55920000
H      -43.25020000     -33.11200000     -68.95060000
C      -44.91760000     -34.25860000     -69.50030000
C      -45.77140000     -35.20600000     -68.99400000
C      -44.56520000     -34.47350000     -70.90270000
H      -46.23830000     -35.23890000     -67.99570000
C      -45.30570000     -35.57220000     -71.39960000
C      -43.53690000     -33.99430000     -71.85060000
C      -43.61370000     -34.72220000     -73.08180000
S      -46.33640000     -36.32910000     -70.25360000
S      -44.86710000     -35.95730000     -73.10900000
H      -42.83360000     -34.67290000     -73.82360000
