40
Properties=species:S:1:pos:R:3 #=T CELL(abcABC):=T 1.889726e+02=T 90.00000=T Traj:=T positionsangstrom=T Step:=T 0=T Bead:=T pbc="F F F"
C      -46.60780000     -33.16110000     -73.51260000
C      -46.04800000     -31.87220000     -73.22820000
C      -46.19700000     -31.40250000     -71.92220000
C      -47.09420000     -31.98500000     -70.97570000
C      -47.84180000     -33.12430000     -71.32930000
C      -47.54660000     -33.69750000     -72.57710000
H      -46.46520000     -33.74650000     -74.42690000
H      -45.83000000     -30.42170000     -71.72310000
H      -48.53570000     -33.61580000     -70.64870000
H      -48.10140000     -34.59540000     -72.81780000
C      -47.34750000     -31.20290000     -69.74080000
H      -48.38820000     -31.17070000     -69.55310000
H      -46.90120000     -30.15610000     -69.75430000
C      -45.17950000     -31.10970000     -74.25240000
H      -45.38960000     -31.42650000     -75.28400000
H      -45.34170000     -30.04870000     -74.26200000
S      -46.76360000     -32.11980000     -68.23030000
S      -43.35840000     -31.46250000     -74.01620000
C      -44.88010000     -32.00440000     -68.54390000
H      -44.75890000     -31.57860000     -69.52140000
H      -44.54610000     -31.26350000     -67.75810000
C      -43.11620000     -31.62250000     -72.20830000
H      -44.07810000     -31.57370000     -71.76460000
H      -42.57500000     -30.73370000     -71.99580000
C      -42.48930000     -32.95350000     -71.78480000
H      -41.66400000     -33.19230000     -72.48870000
H      -42.03400000     -32.78830000     -70.74430000
C      -44.19040000     -33.29880000     -68.40360000
H      -44.23010000     -33.61450000     -67.37580000
H      -43.13910000     -33.26700000     -68.66370000
C      -44.70950000     -34.38860000     -69.31790000
C      -45.78240000     -35.19330000     -68.89530000
C      -44.44040000     -34.51240000     -70.72910000
H      -45.91660000     -35.37020000     -67.81180000
C      -45.13580000     -35.63550000     -71.21880000
C      -43.49050000     -34.09230000     -71.78460000
C      -43.60160000     -34.73090000     -72.95160000
S      -46.37660000     -36.27740000     -70.16680000
S      -44.80800000     -36.05550000     -72.87480000
H      -43.13160000     -34.50300000     -73.91790000
