40
Properties=species:S:1:pos:R:3 #=T CELL(abcABC):=T 1.889726e+02=T 90.00000=T Traj:=T positionsangstrom=T Step:=T 0=T Bead:=T pbc="F F F"
C      -46.50610000     -32.94810000     -73.22770000
C      -46.03970000     -31.68680000     -72.84690000
C      -46.49730000     -31.08630000     -71.63420000
C      -47.43760000     -31.73940000     -70.83540000
C      -47.92920000     -32.96160000     -71.27840000
C      -47.44900000     -33.59370000     -72.45010000
H      -46.27710000     -33.49040000     -74.14490000
H      -45.90880000     -30.17960000     -71.27270000
H      -48.65740000     -33.45110000     -70.66790000
H      -47.80030000     -34.57890000     -72.79960000
C      -47.65910000     -31.22110000     -69.42720000
H      -48.74760000     -31.44220000     -69.04540000
H      -47.71460000     -30.13960000     -69.42330000
C      -45.12040000     -30.97960000     -73.84590000
H      -45.57300000     -30.96120000     -74.80530000
H      -44.99340000     -29.97700000     -73.48610000
S      -46.56690000     -32.00440000     -68.15270000
S      -43.51850000     -31.83230000     -74.11990000
C      -44.78470000     -31.96030000     -68.69870000
H      -44.75530000     -31.75360000     -69.81300000
H      -44.07980000     -31.20460000     -68.30210000
C      -42.91690000     -31.69720000     -72.35000000
H      -43.72090000     -31.09810000     -71.86840000
H      -42.04110000     -31.08310000     -72.33160000
C      -42.50730000     -33.05470000     -71.67900000
H      -41.47100000     -33.27960000     -72.08220000
H      -42.30380000     -32.87100000     -70.66360000
C      -44.11420000     -33.32410000     -68.53840000
H      -44.17310000     -33.65960000     -67.51120000
H      -43.05160000     -33.13180000     -68.73290000
C      -44.72520000     -34.39330000     -69.48950000
C      -45.75930000     -35.20010000     -69.05110000
C      -44.37600000     -34.64790000     -70.86300000
H      -46.26440000     -34.87980000     -68.12480000
C      -45.15910000     -35.73140000     -71.41130000
C      -43.39770000     -34.23100000     -71.80160000
C      -43.49790000     -34.90550000     -73.05950000
S      -46.39300000     -36.25830000     -70.27740000
S      -44.78120000     -36.08810000     -73.11930000
H      -42.86460000     -34.81270000     -73.89080000
