40
Properties=species:S:1:pos:R:3 #=T CELL(abcABC):=T 1.889726e+02=T 90.00000=T Traj:=T positionsangstrom=T Step:=T 0=T Bead:=T pbc="F F F"
C      -46.69770000     -33.68540000     -73.23020000
C      -46.19730000     -32.33150000     -73.20180000
C      -46.66430000     -31.47900000     -72.17650000
C      -47.44260000     -32.02140000     -71.18420000
C      -47.75930000     -33.36790000     -71.08700000
C      -47.44670000     -34.19310000     -72.19250000
H      -46.46210000     -34.27970000     -74.08910000
H      -46.36650000     -30.48060000     -72.06760000
H      -48.33020000     -33.74040000     -70.26070000
H      -47.63200000     -35.24160000     -72.15740000
C      -47.82300000     -31.02620000     -70.11120000
H      -48.78860000     -31.21290000     -69.73050000
H      -47.81980000     -30.03780000     -70.56110000
C      -45.46550000     -31.96490000     -74.46690000
H      -45.90900000     -32.45420000     -75.28510000
H      -45.44410000     -30.86320000     -74.59690000
S      -46.66070000     -30.99800000     -68.57060000
S      -43.70050000     -32.62950000     -74.58660000
C      -44.93480000     -30.92300000     -69.34360000
H      -45.12460000     -30.68820000     -70.45390000
H      -44.42700000     -30.00090000     -68.97570000
C      -43.13480000     -31.93820000     -72.97160000
H      -43.90670000     -31.45160000     -72.48190000
H      -42.41450000     -31.16980000     -73.25900000
C      -42.51610000     -33.09460000     -72.11440000
H      -41.67370000     -33.33240000     -72.68060000
H      -42.09570000     -32.58900000     -71.28030000
C      -44.10580000     -32.21960000     -69.08470000
H      -43.98810000     -32.32460000     -67.97650000
H      -43.15770000     -32.10070000     -69.48550000
C      -44.65660000     -33.60700000     -69.44330000
C      -45.52610000     -34.27050000     -68.62590000
C      -44.32640000     -34.39040000     -70.65060000
H      -45.97140000     -33.73180000     -67.77490000
C      -45.02840000     -35.59820000     -70.67660000
C      -43.43810000     -34.21070000     -71.79900000
C      -43.52630000     -35.27860000     -72.69740000
S      -45.94740000     -35.89600000     -69.24470000
S      -44.58500000     -36.59720000     -72.06210000
H      -42.84220000     -35.44090000     -73.57520000
