40
Properties=species:S:1:pos:R:3 #=T CELL(abcABC):=T 1.889726e+02=T 90.00000=T Traj:=T positionsangstrom=T Step:=T 0=T Bead:=T pbc="F F F"
C      -46.77000000     -33.45270000     -73.61230000
C      -46.33240000     -32.14220000     -73.55210000
C      -46.72440000     -31.33380000     -72.44420000
C      -47.49440000     -31.85580000     -71.30570000
C      -47.86300000     -33.16980000     -71.44290000
C      -47.55270000     -33.90250000     -72.60270000
H      -46.55220000     -34.02630000     -74.48700000
H      -46.40560000     -30.29310000     -72.43640000
H      -48.38260000     -33.64260000     -70.61730000
H      -47.83410000     -34.98530000     -72.66750000
C      -47.70260000     -31.04290000     -70.09460000
H      -48.73730000     -31.23020000     -69.79170000
H      -47.54720000     -30.02020000     -70.24650000
C      -45.38480000     -31.52440000     -74.56750000
H      -45.67220000     -31.88010000     -75.54840000
H      -45.30200000     -30.44090000     -74.53680000
S      -46.67750000     -31.67060000     -68.66100000
S      -43.69800000     -32.28400000     -74.26060000
C      -44.97620000     -31.38390000     -69.28770000
H      -44.91870000     -31.23960000     -70.42830000
H      -44.54880000     -30.40750000     -68.96740000
C      -43.31350000     -31.81290000     -72.55170000
H      -44.23640000     -31.54750000     -72.04350000
H      -42.71340000     -30.89300000     -72.31660000
C      -42.53030000     -32.91270000     -71.85030000
H      -41.71410000     -33.14640000     -72.47240000
H      -42.06450000     -32.53030000     -70.92750000
C      -44.04110000     -32.46540000     -68.81140000
H      -43.91350000     -32.48150000     -67.69410000
H      -43.08600000     -32.24400000     -69.31190000
C      -44.48530000     -33.85370000     -69.20490000
C      -45.41170000     -34.50090000     -68.52140000
C      -44.22240000     -34.49820000     -70.46830000
H      -45.99860000     -34.24950000     -67.66590000
C      -44.90660000     -35.69800000     -70.61700000
C      -43.34110000     -34.18420000     -71.60980000
C      -43.41200000     -35.20270000     -72.55460000
S      -46.05530000     -35.97350000     -69.34730000
S      -44.54570000     -36.46150000     -72.21440000
H      -42.76980000     -35.23520000     -73.42280000
