40
Properties=species:S:1:pos:R:3 #=T CELL(abcABC):=T 1.889726e+02=T 90.00000=T Traj:=T positionsangstrom=T Step:=T 0=T Bead:=T pbc="F F F"
C      -47.07730000     -33.77440000     -73.25410000
C      -46.48620000     -32.52730000     -73.36250000
C      -46.63600000     -31.60390000     -72.32250000
C      -47.40980000     -31.94740000     -71.16730000
C      -48.02180000     -33.20800000     -71.07200000
C      -47.83390000     -34.09990000     -72.14620000
H      -47.13000000     -34.46270000     -74.09370000
H      -46.12020000     -30.67920000     -72.40930000
H      -48.65000000     -33.51000000     -70.18630000
H      -48.30100000     -35.04260000     -72.10350000
C      -47.61570000     -30.82270000     -70.17890000
H      -48.64520000     -30.73370000     -69.73240000
H      -47.32290000     -29.85840000     -70.72750000
C      -45.76130000     -32.18470000     -74.62280000
H      -46.15300000     -32.82180000     -75.41510000
H      -45.77120000     -31.07130000     -74.73930000
S      -46.40300000     -30.87490000     -68.75010000
S      -43.98520000     -32.81100000     -74.62070000
C      -44.71650000     -31.10370000     -69.65430000
H      -44.97960000     -31.32330000     -70.64570000
H      -44.26380000     -30.17610000     -69.63630000
C      -43.39450000     -32.06260000     -73.02310000
H      -44.25040000     -31.76820000     -72.49520000
H      -42.85910000     -31.07160000     -73.24090000
C      -42.63200000     -33.00880000     -72.20540000
H      -41.69980000     -33.28330000     -72.71020000
H      -42.05330000     -32.60180000     -71.33220000
C      -43.86040000     -32.25820000     -69.19460000
H      -43.70960000     -32.01610000     -68.12710000
H      -42.98110000     -32.19930000     -69.70370000
C      -44.45440000     -33.57910000     -69.37810000
C      -45.29520000     -34.19670000     -68.52110000
C      -44.20350000     -34.33630000     -70.59870000
H      -45.65090000     -33.83870000     -67.62040000
C      -44.81790000     -35.56700000     -70.43420000
C      -43.36410000     -34.22580000     -71.74770000
C      -43.35970000     -35.37970000     -72.50160000
S      -45.94000000     -35.72160000     -69.08970000
S      -44.44340000     -36.57780000     -71.83070000
H      -42.70970000     -35.58210000     -73.37140000
