40
Properties=species:S:1:pos:R:3 #=T CELL(abcABC):=T 1.889726e+02=T 90.00000=T Traj:=T positionsangstrom=T Step:=T 0=T Bead:=T pbc="F F F"
C      -47.59610000     -36.02130000     -68.51550000
C      -47.88620000     -35.17670000     -69.56550000
C      -47.83330000     -33.84380000     -69.37490000
C      -47.26080000     -33.37510000     -68.20580000
C      -46.98120000     -34.19000000     -67.13580000
C      -47.11300000     -35.53250000     -67.31580000
H      -47.69570000     -37.06110000     -68.61110000
H      -47.93670000     -33.10050000     -70.21940000
H      -46.47300000     -33.83630000     -66.29390000
H      -46.72470000     -36.17210000     -66.55420000
C      -46.89960000     -31.89220000     -68.08240000
H      -47.34970000     -31.49320000     -67.07930000
H      -47.46300000     -31.29710000     -68.82670000
C      -48.29630000     -35.82560000     -70.83610000
H      -48.58200000     -36.85340000     -70.81580000
H      -49.18700000     -35.35970000     -71.28480000
S      -45.10830000     -31.43710000     -68.25490000
S      -46.98170000     -35.75800000     -72.25140000
C      -44.93110000     -31.22150000     -70.11610000
H      -45.56550000     -31.94530000     -70.56020000
H      -45.17440000     -30.26580000     -70.43440000
C      -45.26960000     -36.10260000     -71.62210000
H      -44.89740000     -36.76980000     -72.37550000
H      -45.33370000     -36.51400000     -70.61930000
C      -44.48380000     -34.74380000     -71.48910000
H      -44.98240000     -34.13000000     -70.75370000
H      -43.50300000     -34.98010000     -71.18650000
C      -43.51990000     -31.56080000     -70.53410000
H      -43.02630000     -32.45800000     -70.08570000
H      -42.78440000     -30.78760000     -70.26770000
C      -43.38060000     -31.65680000     -72.04620000
C      -42.95910000     -30.50990000     -72.71330000
C      -43.69690000     -32.75790000     -72.96550000
H      -42.66120000     -29.61670000     -72.16970000
C      -43.44680000     -32.39770000     -74.28770000
C      -44.36290000     -34.03430000     -72.79610000
C      -44.64620000     -34.64560000     -74.00730000
S      -42.95460000     -30.66740000     -74.40360000
S      -44.01630000     -33.70410000     -75.35630000
H      -45.15790000     -35.54860000     -74.21770000
