40
Properties=species:S:1:pos:R:3 #=T CELL(abcABC):=T 1.889726e+02=T 90.00000=T Traj:=T positionsangstrom=T Step:=T 0=T Bead:=T pbc="F F F"
C      -44.76690000     -30.39470000     -69.93480000
C      -45.36450000     -31.07600000     -68.87600000
C      -46.75580000     -31.32290000     -69.02100000
C      -47.42900000     -30.94500000     -70.20200000
C      -46.82300000     -30.11580000     -71.12910000
C      -45.43740000     -29.90710000     -71.02590000
H      -43.72020000     -30.40090000     -69.92630000
H      -47.25300000     -31.85140000     -68.23600000
H      -47.37200000     -29.67070000     -71.99630000
H      -45.00260000     -29.43750000     -71.82750000
C      -48.87060000     -31.37800000     -70.37930000
H      -49.35030000     -30.69050000     -71.08630000
H      -49.50660000     -31.22170000     -69.54590000
C      -44.60940000     -31.57920000     -67.66750000
H      -43.61980000     -31.19070000     -67.49910000
H      -45.23200000     -31.44690000     -66.76660000
S      -49.11270000     -33.14830000     -70.97490000
S      -44.43300000     -33.45360000     -67.74580000
C      -47.85940000     -33.30800000     -72.27070000
H      -48.18910000     -34.13190000     -72.91520000
H      -47.76660000     -32.40010000     -72.89190000
C      -43.81620000     -33.63210000     -69.42560000
H      -42.79810000     -33.27800000     -69.48290000
H      -44.28310000     -32.90420000     -70.00490000
C      -43.98300000     -35.06700000     -69.92740000
H      -43.41260000     -35.74690000     -69.29850000
H      -45.00770000     -35.38280000     -69.75810000
C      -46.44130000     -33.56090000     -71.83660000
H      -46.51330000     -34.21350000     -70.91840000
H      -46.04680000     -32.71860000     -71.28710000
C      -45.55100000     -34.14240000     -72.91490000
C      -45.81430000     -34.06130000     -74.24570000
C      -44.28160000     -34.74960000     -72.59470000
H      -46.58430000     -33.50620000     -74.71560000
C      -43.63240000     -35.21320000     -73.76690000
C      -43.61110000     -35.20900000     -71.40820000
C      -42.45850000     -35.94350000     -71.74270000
S      -44.54980000     -34.80340000     -75.27270000
S      -42.14420000     -36.03810000     -73.52650000
H      -41.77650000     -36.46420000     -71.01750000
