40
Properties=species:S:1:pos:R:3 #=T CELL(abcABC):=T 1.889726e+02=T 90.00000=T Traj:=T positionsangstrom=T Step:=T 0=T Bead:=T pbc="F F F"
C      -46.46810000     -36.42480000     -68.61960000
C      -47.33740000     -35.56880000     -69.31360000
C      -47.30130000     -34.21510000     -69.05760000
C      -46.55670000     -33.70850000     -67.98420000
C      -45.63600000     -34.56050000     -67.37990000
C      -45.65430000     -35.92550000     -67.64460000
H      -46.47580000     -37.40660000     -68.94550000
H      -47.96100000     -33.53920000     -69.55650000
H      -44.93630000     -34.09970000     -66.71300000
H      -44.82920000     -36.44630000     -67.14790000
C      -46.56000000     -32.21250000     -67.65270000
H      -46.55620000     -32.21940000     -66.50910000
H      -47.45250000     -31.72210000     -68.08060000
C      -48.16100000     -36.14190000     -70.40640000
H      -48.00710000     -37.19260000     -70.49910000
H      -49.20630000     -35.86700000     -70.32480000
S      -44.99260000     -31.37540000     -68.10510000
S      -47.64250000     -35.62090000     -72.18290000
C      -45.14630000     -31.55130000     -69.89670000
H      -45.94350000     -32.24970000     -70.10630000
H      -45.52700000     -30.60130000     -70.22780000
C      -45.84970000     -36.00740000     -72.13690000
H      -45.56450000     -36.48690000     -73.10160000
H      -45.71700000     -36.73580000     -71.38990000
C      -44.94740000     -34.78400000     -71.89240000
H      -45.38100000     -34.14450000     -71.12730000
H      -43.94950000     -35.16780000     -71.53570000
C      -43.72380000     -31.88030000     -70.51470000
H      -43.57990000     -32.96070000     -70.17260000
H      -43.00250000     -31.31240000     -69.88930000
C      -43.65670000     -31.61880000     -71.99290000
C      -43.17090000     -30.44990000     -72.55130000
C      -44.02070000     -32.55690000     -73.03550000
H      -42.91620000     -29.48750000     -72.07860000
C      -43.71360000     -32.13030000     -74.31720000
C      -44.67120000     -33.86180000     -73.09780000
C      -44.97070000     -34.17610000     -74.36370000
S      -43.17740000     -30.52130000     -74.31660000
S      -44.44120000     -33.05280000     -75.57630000
H      -45.50340000     -35.00870000     -74.70470000
