40
Properties=species:S:1:pos:R:3 #=T CELL(abcABC):=T 1.889726e+02=T 90.00000=T Traj:=T positionsangstrom=T Step:=T 0=T Bead:=T pbc="F F F"
C      -47.18740000     -36.01320000     -68.47260000
C      -47.68140000     -35.25460000     -69.56640000
C      -47.58430000     -33.87210000     -69.44290000
C      -47.12390000     -33.33710000     -68.30100000
C      -46.68310000     -34.16540000     -67.18420000
C      -46.71660000     -35.54460000     -67.21850000
H      -47.20450000     -37.04330000     -68.61570000
H      -48.07230000     -33.23460000     -70.17270000
H      -46.31030000     -33.67770000     -66.24580000
H      -46.52450000     -36.20690000     -66.33600000
C      -47.06540000     -31.86950000     -68.08470000
H      -47.38090000     -31.32160000     -67.19480000
H      -47.48030000     -31.38310000     -68.90440000
C      -48.19830000     -35.88820000     -70.78040000
H      -48.27960000     -36.96820000     -70.57840000
H      -49.18420000     -35.45560000     -70.94080000
S      -45.21440000     -31.45010000     -68.27530000
S      -47.14480000     -35.66790000     -72.26100000
C      -45.07750000     -31.51850000     -70.08080000
H      -45.79440000     -32.33580000     -70.46710000
H      -45.39080000     -30.53780000     -70.53330000
C      -45.51230000     -36.00110000     -71.48290000
H      -44.92200000     -36.80610000     -72.05030000
H      -45.66320000     -36.38800000     -70.48120000
C      -44.64380000     -34.76990000     -71.49010000
H      -45.08080000     -34.03990000     -70.78700000
H      -43.69170000     -35.06240000     -70.92230000
C      -43.61430000     -31.81340000     -70.56660000
H      -43.39820000     -32.79300000     -70.10750000
H      -43.06240000     -31.08080000     -70.02550000
C      -43.43430000     -31.65600000     -72.04530000
C      -42.88740000     -30.55110000     -72.65080000
C      -43.82150000     -32.68560000     -72.93810000
H      -42.66320000     -29.62400000     -72.13620000
C      -43.78970000     -32.26010000     -74.28280000
C      -44.28920000     -34.07270000     -72.78640000
C      -44.38450000     -34.62620000     -74.03880000
S      -42.90220000     -30.71750000     -74.43080000
S      -44.11410000     -33.53280000     -75.42130000
H      -44.73620000     -35.64770000     -74.30580000
