40
Properties=species:S:1:pos:R:3 #=T CELL(abcABC):=T 1.889726e+02=T 90.00000=T Traj:=T positionsangstrom=T Step:=T 0=T Bead:=T pbc="F F F"
C      -45.37350000     -37.22380000     -69.64180000
C      -46.57390000     -36.46930000     -69.83790000
C      -46.65930000     -35.23660000     -69.16750000
C      -45.60270000     -34.64260000     -68.50490000
C      -44.45820000     -35.42280000     -68.23770000
C      -44.36610000     -36.70900000     -68.80610000
H      -45.15040000     -38.21010000     -69.98790000
H      -47.55450000     -34.63100000     -69.25910000
H      -43.57520000     -34.97530000     -67.70740000
H      -43.50460000     -37.34690000     -68.56790000
C      -45.91710000     -33.36850000     -67.79230000
H      -46.34250000     -33.54510000     -66.79780000
H      -46.64940000     -32.80740000     -68.33940000
C      -47.65270000     -37.02510000     -70.64380000
H      -47.57570000     -38.11030000     -70.83300000
H      -48.62000000     -36.89390000     -70.13810000
S      -44.51080000     -32.28670000     -67.56320000
S      -47.93080000     -36.13460000     -72.27750000
C      -44.50340000     -31.21350000     -69.09400000
H      -45.55330000     -30.73920000     -69.09230000
H      -43.84000000     -30.39160000     -69.11030000
C      -46.22730000     -35.59470000     -72.84850000
H      -46.34090000     -35.62300000     -74.00860000
H      -45.38130000     -36.34480000     -72.62790000
C      -45.87050000     -34.18860000     -72.29320000
H      -46.81520000     -33.77410000     -71.76330000
H      -45.15460000     -34.33010000     -71.46400000
C      -44.36400000     -32.13320000     -70.27880000
H      -45.12490000     -32.89870000     -70.11010000
H      -43.42150000     -32.72950000     -70.15680000
C      -44.25550000     -31.35030000     -71.62400000
C      -43.66310000     -30.10890000     -71.77660000
C      -44.67810000     -31.90190000     -72.89620000
H      -43.25240000     -29.47190000     -71.01690000
C      -44.47030000     -31.02150000     -73.98360000
C      -45.30850000     -33.18960000     -73.31000000
C      -45.54040000     -33.23010000     -74.66250000
S      -43.73520000     -29.51710000     -73.42240000
S      -44.94120000     -31.65040000     -75.46510000
H      -45.71710000     -34.17370000     -75.13930000
