40
Properties=species:S:1:pos:R:3 #=T CELL(abcABC):=T 1.889726e+02=T 90.00000=T Traj:=T positionsangstrom=T Step:=T 0=T Bead:=T pbc="F F F"
C      -47.01780000     -34.42240000     -72.76280000
C      -46.59350000     -33.25020000     -73.47930000
C      -46.77310000     -32.02960000     -72.83580000
C      -47.30710000     -31.96150000     -71.58220000
C      -47.93520000     -33.07040000     -70.94530000
C      -47.69640000     -34.31150000     -71.55230000
H      -47.00480000     -35.41310000     -73.26510000
H      -46.64750000     -31.04050000     -73.25870000
H      -48.40960000     -32.99050000     -69.93160000
H      -48.10980000     -35.13720000     -70.95140000
C      -47.40260000     -30.63200000     -70.89440000
H      -48.42410000     -30.57260000     -70.50170000
H      -47.07920000     -29.82290000     -71.61460000
C      -46.05770000     -33.33870000     -74.89280000
H      -46.51720000     -34.14630000     -75.49970000
H      -46.17910000     -32.40000000     -75.33720000
S      -46.27010000     -30.38190000     -69.45210000
S      -44.16220000     -33.63000000     -74.86390000
C      -44.70530000     -30.75330000     -70.31700000
H      -45.00640000     -31.35430000     -71.15340000
H      -44.22650000     -29.82630000     -70.55650000
C      -43.48410000     -32.54040000     -73.43750000
H      -44.31300000     -32.02920000     -72.98700000
H      -42.86520000     -31.78520000     -73.91490000
C      -42.68180000     -33.22500000     -72.34630000
H      -41.85530000     -33.73920000     -72.82620000
H      -42.30540000     -32.37030000     -71.69640000
C      -43.70490000     -31.64460000     -69.47270000
H      -43.54610000     -31.26920000     -68.45870000
H      -42.70480000     -31.74670000     -69.87270000
C      -44.36040000     -33.00090000     -69.44910000
C      -45.32220000     -33.25320000     -68.48340000
C      -44.19880000     -34.08560000     -70.40410000
H      -45.66810000     -32.69720000     -67.66580000
C      -44.80830000     -35.26080000     -69.92040000
C      -43.42160000     -34.27890000     -71.57800000
C      -43.45700000     -35.59320000     -71.99990000
S      -45.89920000     -34.95900000     -68.58220000
S      -44.42740000     -36.65610000     -70.90330000
H      -42.93900000     -35.97260000     -72.83770000
