40
Properties=species:S:1:pos:R:3 #=T CELL(abcABC):=T 1.889726e+02=T 90.00000=T Traj:=T positionsangstrom=T Step:=T 0=T Bead:=T pbc="F F F"
C      -45.51300000     -36.57280000     -69.33530000
C      -46.68840000     -35.92920000     -69.63980000
C      -46.93550000     -34.64030000     -69.09600000
C      -46.06700000     -34.09910000     -68.15880000
C      -44.84990000     -34.79490000     -67.84630000
C      -44.53800000     -36.00550000     -68.46700000
H      -45.29660000     -37.55920000     -69.74170000
H      -47.92730000     -34.21800000     -69.34200000
H      -44.20120000     -34.46530000     -67.05300000
H      -43.62480000     -36.51170000     -68.12810000
C      -46.27910000     -32.65170000     -67.64910000
H      -46.51830000     -32.67550000     -66.58890000
H      -47.08040000     -32.17520000     -68.18490000
C      -47.78970000     -36.61100000     -70.38800000
H      -47.69970000     -37.73170000     -70.44090000
H      -48.79980000     -36.26990000     -70.09240000
S      -44.68520000     -31.59120000     -67.68990000
S      -47.94330000     -36.18250000     -72.19940000
C      -44.69130000     -31.11580000     -69.45180000
H      -45.75160000     -30.99840000     -69.61840000
H      -44.28580000     -30.12010000     -69.41400000
C      -46.09080000     -35.98580000     -72.73600000
H      -45.93940000     -36.06070000     -73.85150000
H      -45.59780000     -36.84540000     -72.41900000
C      -45.38600000     -34.70660000     -72.18360000
H      -46.01340000     -34.36740000     -71.33020000
H      -44.51140000     -34.96720000     -71.64810000
C      -43.90800000     -32.08270000     -70.36660000
H      -44.43640000     -33.03650000     -70.27180000
H      -42.91440000     -32.34060000     -69.92210000
C      -43.82400000     -31.67300000     -71.78790000
C      -43.22650000     -30.49070000     -72.15290000
C      -44.44870000     -32.35830000     -72.92280000
H      -42.69060000     -29.89620000     -71.39680000
C      -44.30890000     -31.60060000     -74.10160000
C      -45.09720000     -33.61670000     -73.20030000
C      -45.48630000     -33.75660000     -74.51010000
S      -43.56290000     -30.06920000     -73.93350000
S      -45.07990000     -32.31350000     -75.47990000
H      -45.65290000     -34.65130000     -75.15000000
