40
Properties=species:S:1:pos:R:3 #=T CELL(abcABC):=T 1.889726e+02=T 90.00000=T Traj:=T positionsangstrom=T Step:=T 0=T Bead:=T pbc="F F F"
C      -47.10210000     -34.50040000     -72.96690000
C      -46.65310000     -33.36470000     -73.54320000
C      -46.94140000     -32.13500000     -72.93480000
C      -47.67640000     -32.05690000     -71.73430000
C      -48.07940000     -33.25830000     -71.16070000
C      -47.86780000     -34.49260000     -71.77550000
H      -47.03070000     -35.43620000     -73.49050000
H      -46.51440000     -31.28450000     -73.42400000
H      -48.61660000     -33.17980000     -70.28930000
H      -48.28680000     -35.38550000     -71.37010000
C      -47.71050000     -30.76150000     -70.97580000
H      -48.73140000     -30.66250000     -70.59480000
H      -47.45390000     -29.94550000     -71.69270000
C      -45.89670000     -33.39300000     -74.84790000
H      -46.24500000     -34.32310000     -75.42000000
H      -46.21280000     -32.53500000     -75.41980000
S      -46.50890000     -30.68250000     -69.65560000
S      -44.10110000     -33.73590000     -74.77820000
C      -44.97230000     -30.59170000     -70.59570000
H      -44.99350000     -31.12930000     -71.59310000
H      -44.73250000     -29.59020000     -70.81990000
C      -43.53090000     -32.61560000     -73.37620000
H      -44.51460000     -32.41320000     -72.78570000
H      -43.13980000     -31.65260000     -73.70200000
C      -42.49020000     -33.35560000     -72.48570000
H      -41.81660000     -33.98120000     -73.09740000
H      -41.74530000     -32.66200000     -71.96060000
C      -43.83550000     -31.30400000     -69.87010000
H      -43.57850000     -30.74270000     -68.97680000
H      -42.98400000     -31.30080000     -70.57270000
C      -44.21600000     -32.71060000     -69.43440000
C      -45.08360000     -33.06070000     -68.38700000
C      -43.88470000     -33.93700000     -70.16500000
H      -45.29890000     -32.35970000     -67.59460000
C      -44.54760000     -35.06040000     -69.66260000
C      -43.26190000     -34.26640000     -71.44430000
C      -43.55610000     -35.57880000     -71.82910000
S      -45.52600000     -34.76590000     -68.33800000
S      -44.44020000     -36.51020000     -70.61690000
H      -43.21040000     -36.07110000     -72.69580000
