40
Properties=species:S:1:pos:R:3 #=T CELL(abcABC):=T 1.889726e+02=T 90.00000=T Traj:=T positionsangstrom=T Step:=T 0=T Bead:=T pbc="F F F"
C      -47.09540000     -34.51210000     -72.88380000
C      -46.67900000     -33.35140000     -73.51790000
C      -47.00780000     -32.12850000     -72.96370000
C      -47.58670000     -32.03160000     -71.69500000
C      -48.03730000     -33.24810000     -71.11180000
C      -47.79620000     -34.47040000     -71.73770000
H      -46.85320000     -35.40730000     -73.48460000
H      -46.91930000     -31.24800000     -73.53310000
H      -48.46300000     -33.20850000     -70.10170000
H      -48.09650000     -35.42610000     -71.32260000
C      -47.90770000     -30.73080000     -71.05520000
H      -48.79050000     -30.69790000     -70.52200000
H      -47.85260000     -29.88300000     -71.81620000
C      -46.03850000     -33.40510000     -74.83670000
H      -46.29610000     -34.25920000     -75.48830000
H      -46.16790000     -32.47780000     -75.39740000
S      -46.57610000     -30.50620000     -69.62090000
S      -44.16740000     -33.82670000     -74.72280000
C      -45.01660000     -30.69860000     -70.60710000
H      -45.28910000     -31.34210000     -71.40490000
H      -44.79280000     -29.66970000     -70.95630000
C      -43.43280000     -32.59090000     -73.55390000
H      -44.20560000     -31.89850000     -73.37160000
H      -42.71370000     -32.06630000     -74.20220000
C      -42.66150000     -33.22010000     -72.45950000
H      -41.84830000     -33.68310000     -72.90600000
H      -42.16410000     -32.35500000     -71.87200000
C      -43.84210000     -31.33760000     -69.84260000
H      -43.60150000     -30.85210000     -68.89710000
H      -42.85740000     -31.21610000     -70.41800000
C      -44.23470000     -32.76830000     -69.53520000
C      -44.92270000     -33.06370000     -68.35760000
C      -44.10350000     -33.95340000     -70.36200000
H      -45.45200000     -32.34830000     -67.73920000
C      -44.60070000     -35.11290000     -69.74480000
C      -43.34570000     -34.24410000     -71.54170000
C      -43.31700000     -35.62130000     -71.83850000
S      -45.40840000     -34.72850000     -68.16470000
S      -44.29430000     -36.63590000     -70.68690000
H      -43.06420000     -35.98540000     -72.79790000
