40
Properties=species:S:1:pos:R:3 #=T CELL(abcABC):=T 1.889726e+02=T 90.00000=T Traj:=T positionsangstrom=T Step:=T 0=T Bead:=T pbc="F F F"
C      -46.89200000     -34.65890000     -72.55600000
C      -46.66580000     -33.55670000     -73.40690000
C      -47.07460000     -32.30630000     -72.95220000
C      -47.61970000     -32.08790000     -71.66200000
C      -47.77340000     -33.15740000     -70.81340000
C      -47.38810000     -34.45720000     -71.26370000
H      -46.68700000     -35.68640000     -72.86130000
H      -47.06080000     -31.46560000     -73.65440000
H      -48.23660000     -33.06760000     -69.87300000
H      -47.58670000     -35.36700000     -70.64810000
C      -47.74040000     -30.59270000     -71.31480000
H      -48.66090000     -30.38320000     -70.83280000
H      -47.68230000     -29.93510000     -72.16490000
C      -46.07910000     -33.69860000     -74.81900000
H      -46.59010000     -34.51490000     -75.39000000
H      -46.22150000     -32.77630000     -75.34680000
S      -46.62080000     -30.15900000     -69.92590000
S      -44.27430000     -34.12690000     -74.74720000
C      -44.97080000     -30.41620000     -70.62240000
H      -45.09640000     -30.92550000     -71.67550000
H      -44.41880000     -29.48490000     -70.71230000
C      -43.62930000     -32.75930000     -73.73290000
H      -44.52380000     -32.19530000     -73.38720000
H      -43.09340000     -31.98270000     -74.36570000
C      -42.74240000     -33.20900000     -72.54420000
H      -41.79890000     -33.53630000     -72.97070000
H      -42.51060000     -32.26990000     -71.98930000
C      -44.09350000     -31.26510000     -69.77410000
H      -44.12620000     -30.85810000     -68.73790000
H      -43.09090000     -31.26240000     -70.13840000
C      -44.44730000     -32.74320000     -69.57680000
C      -45.11170000     -33.06450000     -68.44750000
C      -44.29350000     -33.89080000     -70.43860000
H      -45.31840000     -32.35390000     -67.66150000
C      -44.61830000     -35.10260000     -69.74310000
C      -43.44360000     -34.20700000     -71.58630000
C      -43.34020000     -35.55670000     -71.80580000
S      -45.35170000     -34.82110000     -68.17960000
S      -44.08900000     -36.49460000     -70.60140000
H      -42.69270000     -36.12670000     -72.55400000
