40
Properties=species:S:1:pos:R:3 #=T CELL(abcABC):=T 1.889726e+02=T 90.00000=T Traj:=T positionsangstrom=T Step:=T 0=T Bead:=T pbc="F F F"
C      -46.98030000     -34.56330000     -72.81450000
C      -46.69750000     -33.38610000     -73.50550000
C      -46.99890000     -32.15710000     -72.87290000
C      -47.61080000     -32.07040000     -71.63720000
C      -47.90190000     -33.23020000     -70.98570000
C      -47.57180000     -34.47370000     -71.51470000
H      -46.76160000     -35.55880000     -73.15610000
H      -46.69810000     -31.23540000     -73.32260000
H      -48.07870000     -33.21780000     -69.90620000
H      -47.60600000     -35.29510000     -70.85960000
C      -47.91150000     -30.73050000     -70.98310000
H      -48.92250000     -30.85940000     -70.36090000
H      -48.08230000     -30.06220000     -71.80500000
C      -46.06960000     -33.52260000     -74.86780000
H      -46.61530000     -34.41290000     -75.26490000
H      -46.04200000     -32.61380000     -75.50160000
S      -46.58880000     -30.14080000     -69.80570000
S      -44.29960000     -34.05140000     -74.73860000
C      -45.02000000     -30.63330000     -70.69630000
H      -45.39890000     -31.25350000     -71.54220000
H      -44.52670000     -29.77350000     -71.05630000
C      -43.52420000     -32.69960000     -73.71570000
H      -44.43110000     -32.11810000     -73.46790000
H      -42.92430000     -32.17280000     -74.35670000
C      -42.71200000     -33.09420000     -72.47320000
H      -41.73670000     -33.59160000     -72.80060000
H      -42.36750000     -32.28980000     -71.91050000
C      -44.01700000     -31.34830000     -69.79630000
H      -43.92020000     -30.73000000     -68.82790000
H      -43.04090000     -31.31140000     -70.32950000
C      -44.34100000     -32.80600000     -69.50910000
C      -45.12840000     -33.14290000     -68.43760000
C      -43.97160000     -33.94230000     -70.28820000
H      -45.22500000     -32.53930000     -67.55720000
C      -44.45130000     -35.10350000     -69.64490000
C      -43.30640000     -34.19810000     -71.59520000
C      -43.35980000     -35.53200000     -71.93570000
S      -45.41120000     -34.87710000     -68.20670000
S      -44.17620000     -36.54130000     -70.62760000
H      -42.73090000     -36.01720000     -72.78780000
