40
Properties=species:S:1:pos:R:3 #=T CELL(abcABC):=T 1.889726e+02=T 90.00000=T Traj:=T positionsangstrom=T Step:=T 0=T Bead:=T pbc="F F F"
C      -44.73380000     -37.12740000     -70.92430000
C      -45.99730000     -36.69460000     -70.72040000
C      -46.34860000     -35.87260000     -69.62280000
C      -45.38810000     -35.46230000     -68.71490000
C      -44.12190000     -36.07120000     -68.84360000
C      -43.76750000     -36.83710000     -69.96260000
H      -44.34460000     -37.52420000     -71.88320000
H      -47.38550000     -35.49700000     -69.49340000
H      -43.39150000     -35.82230000     -68.04560000
H      -42.73810000     -37.17420000     -70.05980000
C      -45.80550000     -34.54700000     -67.67740000
H      -45.93020000     -35.12450000     -66.75480000
H      -46.88010000     -34.24120000     -67.89370000
C      -47.03900000     -37.01730000     -71.79910000
H      -46.59710000     -37.43360000     -72.73850000
H      -47.69780000     -37.82800000     -71.44490000
S      -44.71090000     -33.13110000     -67.35730000
S      -47.98820000     -35.38180000     -72.30950000
C      -45.20270000     -31.96130000     -68.66170000
H      -46.20820000     -31.61780000     -68.54220000
H      -44.63980000     -31.03220000     -68.47790000
C      -46.79260000     -34.75290000     -73.60720000
H      -47.44390000     -34.01440000     -74.09690000
H      -46.61800000     -35.42150000     -74.45580000
C      -45.40990000     -34.26700000     -73.02860000
H      -45.57090000     -34.23210000     -71.89610000
H      -44.77270000     -35.16110000     -73.10430000
C      -45.19390000     -32.54160000     -70.09490000
H      -46.10830000     -33.08720000     -70.28000000
H      -44.37400000     -33.18710000     -70.29420000
C      -45.08290000     -31.41920000     -71.19100000
C      -44.94970000     -30.05530000     -70.85850000
C      -44.88160000     -31.71610000     -72.56660000
H      -45.31120000     -29.53810000     -69.96170000
C      -44.49800000     -30.55780000     -73.27360000
C      -44.90940000     -32.88870000     -73.40400000
C      -44.48840000     -32.61730000     -74.66620000
S      -44.50010000     -29.13530000     -72.22950000
S      -44.21310000     -30.91670000     -74.97590000
H      -44.61610000     -33.30970000     -75.48290000
