40
Properties=species:S:1:pos:R:3 #=T CELL(abcABC):=T 1.889726e+02=T 90.00000=T Traj:=T positionsangstrom=T Step:=T 0=T Bead:=T pbc="F F F"
C      -43.26080000     -34.28890000     -72.42200000
C      -43.66650000     -35.45990000     -71.75420000
C      -44.89510000     -36.03950000     -72.12300000
C      -45.72790000     -35.41180000     -73.06650000
C      -45.26990000     -34.28680000     -73.74500000
C      -44.02660000     -33.74280000     -73.40810000
H      -42.38150000     -33.63900000     -72.14680000
H      -45.25090000     -36.95880000     -71.66910000
H      -45.88150000     -33.80730000     -74.55030000
H      -43.56130000     -33.05840000     -74.14290000
C      -46.97020000     -36.10970000     -73.44890000
H      -46.76430000     -37.18710000     -73.60980000
H      -47.55590000     -35.69900000     -74.26970000
C      -42.71930000     -35.82870000     -70.59600000
H      -42.93090000     -36.78820000     -70.09630000
H      -41.68530000     -35.78400000     -70.95890000
S      -48.32430000     -36.14350000     -72.11810000
S      -42.79850000     -34.60690000     -69.18730000
C      -48.52720000     -34.27810000     -71.78730000
H      -48.43030000     -33.73250000     -72.77510000
H      -49.56110000     -34.08120000     -71.59800000
C      -44.53680000     -34.50050000     -68.64900000
H      -44.66140000     -35.09250000     -67.77960000
H      -45.12020000     -34.93050000     -69.49710000
C      -44.93640000     -33.05870000     -68.41000000
H      -45.98590000     -33.01910000     -68.08370000
H      -44.36780000     -32.69400000     -67.51520000
C      -47.53150000     -33.65940000     -70.76330000
H      -46.74430000     -34.34710000     -70.42530000
H      -48.03070000     -33.45730000     -69.82890000
C      -46.81920000     -32.41760000     -71.28260000
C      -47.25440000     -31.66950000     -72.36700000
C      -45.58940000     -31.78020000     -70.69210000
H      -48.12890000     -31.73120000     -73.04850000
C      -45.12270000     -30.67380000     -71.42690000
C      -44.78730000     -32.00030000     -69.50910000
C      -43.70530000     -31.13040000     -69.47090000
S      -46.26060000     -30.31970000     -72.73310000
S      -43.77360000     -29.89360000     -70.66570000
H      -42.93670000     -31.25720000     -68.67540000
