40
Properties=species:S:1:pos:R:3 #=T CELL(abcABC):=T 1.889726e+02=T 90.00000=T Traj:=T positionsangstrom=T Step:=T 0=T Bead:=T pbc="F F F"
C      -44.61670000     -30.01720000     -70.07770000
C      -45.26800000     -30.85230000     -69.19080000
C      -46.57780000     -31.19380000     -69.41380000
C      -47.23200000     -30.74250000     -70.57850000
C      -46.55120000     -29.87830000     -71.46260000
C      -45.22160000     -29.52870000     -71.20060000
H      -43.53280000     -29.86630000     -69.86480000
H      -47.12680000     -31.59130000     -68.57970000
H      -47.10680000     -29.41880000     -72.19550000
H      -44.56320000     -28.80090000     -71.77810000
C      -48.66400000     -31.13550000     -70.92360000
H      -49.05470000     -30.69640000     -71.80170000
H      -49.34220000     -30.67630000     -70.27140000
C      -44.58680000     -31.33110000     -67.92010000
H      -43.54360000     -30.93900000     -67.86350000
H      -45.17720000     -31.18900000     -67.01360000
S      -49.05520000     -32.91010000     -70.80080000
S      -44.46180000     -33.25150000     -67.78190000
C      -48.01140000     -33.74730000     -72.12650000
H      -48.64500000     -34.55200000     -72.48930000
H      -47.84530000     -32.98940000     -72.89030000
C      -43.90450000     -33.53090000     -69.52770000
H      -42.97500000     -33.06980000     -69.70290000
H      -44.70590000     -33.01980000     -70.13480000
C      -43.81240000     -35.02470000     -69.87380000
H      -43.03600000     -35.54290000     -69.28920000
H      -44.71810000     -35.54150000     -69.48970000
C      -46.65930000     -34.12620000     -71.51060000
H      -46.77290000     -34.78260000     -70.67420000
H      -46.40240000     -33.20490000     -71.00550000
C      -45.70230000     -34.59570000     -72.59790000
C      -46.11800000     -34.63710000     -73.91780000
C      -44.36500000     -35.07080000     -72.44270000
H      -47.03740000     -34.30590000     -74.37060000
C      -43.75790000     -35.33450000     -73.66300000
C      -43.45300000     -35.32040000     -71.29930000
C      -42.26510000     -35.83120000     -71.73690000
S      -44.86300000     -35.17140000     -75.00180000
S      -42.14960000     -36.01510000     -73.48060000
H      -41.42530000     -36.01810000     -71.17780000
