40
Properties=species:S:1:pos:R:3 #=T CELL(abcABC):=T 1.889726e+02=T 90.00000=T Traj:=T positionsangstrom=T Step:=T 0=T Bead:=T pbc="F F F"
C      -43.33120000     -33.73250000     -72.28750000
C      -43.46360000     -34.90860000     -71.57310000
C      -44.50500000     -35.82690000     -71.91020000
C      -45.28570000     -35.66530000     -73.04080000
C      -44.97100000     -34.49030000     -73.80630000
C      -44.05190000     -33.51660000     -73.50020000
H      -42.52640000     -33.00060000     -72.05840000
H      -44.65480000     -36.70830000     -71.22610000
H      -45.53970000     -34.35410000     -74.76810000
H      -43.88580000     -32.62790000     -74.17280000
C      -46.49800000     -36.53680000     -73.29040000
H      -46.27780000     -37.54190000     -73.05990000
H      -46.88550000     -36.48400000     -74.29510000
C      -42.49460000     -35.15230000     -70.42300000
H      -42.09950000     -36.21040000     -70.38160000
H      -41.63080000     -34.59520000     -70.57640000
S      -47.78150000     -36.27880000     -71.88240000
S      -43.18840000     -34.83470000     -68.68200000
C      -48.30420000     -34.52020000     -72.14430000
H      -48.17420000     -34.22120000     -73.14130000
H      -49.39280000     -34.53030000     -72.04470000
C      -45.06770000     -34.62910000     -68.85380000
H      -45.61520000     -35.32230000     -68.23190000
H      -45.34500000     -34.81430000     -69.90480000
C      -45.45680000     -33.17040000     -68.51630000
H      -46.52580000     -33.08760000     -68.45710000
H      -45.03570000     -32.88690000     -67.54610000
C      -47.76950000     -33.50980000     -71.07450000
H      -47.26560000     -34.03230000     -70.25950000
H      -48.62220000     -33.12270000     -70.53590000
C      -46.94110000     -32.37820000     -71.61820000
C      -47.24540000     -31.64690000     -72.74840000
C      -45.80610000     -31.83270000     -70.82570000
H      -48.10450000     -31.98170000     -73.38440000
C      -45.32020000     -30.71070000     -71.46230000
C      -45.02830000     -32.08140000     -69.58910000
C      -44.02420000     -31.08960000     -69.40990000
S      -46.16780000     -30.23850000     -72.93390000
S      -43.90480000     -29.98620000     -70.71500000
H      -43.44250000     -31.00850000     -68.51520000
