40
Properties=species:S:1:pos:R:3 #=T CELL(abcABC):=T 1.889726e+02=T 90.00000=T Traj:=T positionsangstrom=T Step:=T 0=T Bead:=T pbc="F F F"
C      -44.47740000     -29.96900000     -70.11940000
C      -45.19580000     -30.81080000     -69.19450000
C      -46.49360000     -31.23680000     -69.57520000
C      -47.16510000     -30.71810000     -70.62920000
C      -46.49100000     -29.86650000     -71.51300000
C      -45.12560000     -29.47790000     -71.25650000
H      -43.47540000     -29.63250000     -69.86340000
H      -46.84720000     -32.08900000     -68.97890000
H      -46.99570000     -29.59330000     -72.36330000
H      -44.65570000     -28.84420000     -72.01520000
C      -48.59680000     -31.00960000     -70.96130000
H      -48.78340000     -30.67040000     -72.05750000
H      -49.16410000     -30.41420000     -70.17200000
C      -44.47340000     -31.31510000     -68.00330000
H      -43.47270000     -30.97880000     -68.11170000
H      -44.86740000     -30.81660000     -67.10470000
S      -49.19740000     -32.77810000     -70.72300000
S      -44.41810000     -33.10990000     -67.80050000
C      -48.15850000     -33.60900000     -72.02420000
H      -48.80190000     -34.35640000     -72.50800000
H      -47.95620000     -32.97750000     -72.93750000
C      -43.60600000     -33.53260000     -69.46020000
H      -42.55100000     -33.18570000     -69.50880000
H      -44.09400000     -32.89440000     -70.17980000
C      -43.84270000     -35.05490000     -69.86240000
H      -43.22560000     -35.62850000     -69.20750000
H      -44.87420000     -35.39930000     -69.68760000
C      -46.80820000     -34.20300000     -71.52860000
H      -46.91570000     -35.11010000     -70.89470000
H      -46.18440000     -33.43250000     -70.95320000
C      -45.87960000     -34.77650000     -72.62290000
C      -46.21570000     -34.89060000     -73.95900000
C      -44.48510000     -35.24560000     -72.36570000
H      -47.10730000     -34.48750000     -74.38730000
C      -43.87470000     -35.53100000     -73.58730000
C      -43.52960000     -35.34930000     -71.25230000
C      -42.25980000     -35.67120000     -71.66610000
S      -44.84750000     -35.42610000     -74.98150000
S      -42.15210000     -35.89310000     -73.46970000
H      -41.37210000     -35.77630000     -71.14710000
