40
Properties=species:S:1:pos:R:3 #=T CELL(abcABC):=T 1.889726e+02=T 90.00000=T Traj:=T positionsangstrom=T Step:=T 0=T Bead:=T pbc="F F F"
C      -42.68140000     -35.78540000     -69.71350000
C      -42.26260000     -34.67520000     -70.54060000
C      -42.58300000     -34.63480000     -71.90800000
C      -43.16590000     -35.73570000     -72.54610000
C      -43.56590000     -36.86660000     -71.82200000
C      -43.29260000     -36.85590000     -70.44890000
H      -42.63870000     -35.63340000     -68.65590000
H      -42.24460000     -33.79430000     -72.51760000
H      -43.93640000     -37.82310000     -72.22020000
H      -43.61350000     -37.73360000     -69.88220000
C      -43.55230000     -35.62180000     -74.00790000
H      -42.83140000     -36.14610000     -74.69260000
H      -43.45590000     -34.58120000     -74.39070000
C      -41.60060000     -33.48550000     -69.84640000
H      -40.57940000     -33.64040000     -69.36970000
H      -41.54910000     -32.72760000     -70.55920000
S      -45.20460000     -36.20560000     -74.34480000
S      -42.61450000     -32.73590000     -68.42670000
C      -46.14430000     -34.66830000     -73.90500000
H      -46.18450000     -33.97800000     -74.74000000
H      -47.23060000     -34.90320000     -73.78140000
C      -44.05170000     -32.05690000     -69.41160000
H      -43.79660000     -31.81300000     -70.46820000
H      -44.25670000     -31.13360000     -68.91860000
C      -45.30160000     -32.92050000     -69.36730000
H      -45.05450000     -33.77970000     -69.92920000
H      -45.39120000     -33.09790000     -68.28610000
C      -45.73500000     -33.79940000     -72.65670000
H      -44.74340000     -33.39170000     -72.84620000
H      -45.42880000     -34.26710000     -71.74980000
C      -46.68100000     -32.58390000     -72.44140000
C      -47.49750000     -32.11600000     -73.45040000
C      -47.06850000     -32.05070000     -71.14200000
H      -47.58080000     -32.47870000     -74.46640000
C      -48.07490000     -31.11050000     -71.20940000
C      -46.53620000     -32.15530000     -69.77680000
C      -47.32740000     -31.51420000     -68.83730000
S      -48.71150000     -30.94870000     -72.86910000
S      -48.41100000     -30.36580000     -69.62760000
H      -47.05990000     -31.45080000     -67.78260000
