40
Properties=species:S:1:pos:R:3 #=T CELL(abcABC):=T 1.889726e+02=T 90.00000=T Traj:=T positionsangstrom=T Step:=T 0=T Bead:=T pbc="F F F"
C      -45.54800000     -34.82630000     -73.61980000
C      -46.80970000     -34.55740000     -73.02290000
C      -47.14460000     -33.18430000     -72.80950000
C      -46.24870000     -32.11490000     -73.19380000
C      -45.04820000     -32.44600000     -73.80820000
C      -44.57870000     -33.81670000     -73.87460000
H      -45.29330000     -35.88250000     -73.90810000
H      -48.12820000     -32.77820000     -72.38480000
H      -44.34630000     -31.66200000     -74.11290000
H      -43.56550000     -33.97780000     -74.26500000
C      -46.70360000     -30.71330000     -73.19160000
H      -47.71470000     -30.62030000     -72.96160000
H      -46.61050000     -30.20460000     -74.15530000
C      -47.89740000     -35.64750000     -72.80280000
H      -48.71190000     -35.61230000     -73.54700000
H      -47.47980000     -36.71660000     -72.93080000
S      -45.97870000     -29.84680000     -71.75600000
S      -48.67200000     -35.64120000     -71.13240000
C      -46.65190000     -30.73190000     -70.29110000
H      -47.34800000     -30.08200000     -69.69050000
H      -47.24240000     -31.57480000     -70.62780000
C      -47.20660000     -35.95770000     -69.96570000
H      -46.55060000     -36.59170000     -70.42240000
H      -47.47510000     -36.44890000     -69.08880000
C      -46.47410000     -34.66870000     -69.59370000
H      -46.97280000     -33.79830000     -70.04470000
H      -46.68670000     -34.45370000     -68.52240000
C      -45.50310000     -31.18370000     -69.38120000
H      -45.89530000     -31.93250000     -68.68220000
H      -45.09780000     -30.33050000     -68.83950000
C      -44.32260000     -32.01890000     -69.97690000
C      -43.13130000     -31.34720000     -70.28020000
C      -44.19890000     -33.46380000     -70.02050000
H      -42.90730000     -30.31380000     -70.12200000
C      -42.90510000     -33.83260000     -70.48780000
C      -45.04390000     -34.61440000     -69.85400000
C      -44.34460000     -35.77150000     -70.05270000
S      -41.80080000     -32.47270000     -70.66210000
S      -42.64980000     -35.59080000     -70.54980000
H      -44.75200000     -36.78190000     -70.02310000
