40
Properties=species:S:1:pos:R:3 #=T CELL(abcABC):=T 1.889726e+02=T 90.00000=T Traj:=T positionsangstrom=T Step:=T 0=T Bead:=T pbc="F F F"
C      -43.18400000     -33.71680000     -72.26880000
C      -43.44280000     -34.85130000     -71.55910000
C      -44.49560000     -35.73210000     -72.05190000
C      -45.38890000     -35.27910000     -73.02160000
C      -45.08740000     -34.10740000     -73.73100000
C      -44.00370000     -33.33780000     -73.36860000
H      -42.28040000     -33.14760000     -72.10170000
H      -44.70000000     -36.62090000     -71.50420000
H      -45.66800000     -33.88400000     -74.59540000
H      -43.74370000     -32.36630000     -73.75970000
C      -46.51410000     -36.15640000     -73.41600000
H      -46.06580000     -37.12290000     -73.39080000
H      -46.91750000     -36.07420000     -74.47740000
C      -42.49910000     -35.26230000     -70.51050000
H      -42.41420000     -36.40750000     -70.56440000
H      -41.49580000     -34.87130000     -70.62370000
S      -47.91860000     -36.31600000     -72.25300000
S      -43.03370000     -34.92040000     -68.71190000
C      -48.55030000     -34.60010000     -71.78060000
H      -48.97640000     -34.13360000     -72.68930000
H      -49.45230000     -34.87370000     -71.19320000
C      -44.81050000     -34.60120000     -68.78360000
H      -45.32780000     -35.10080000     -67.96420000
H      -45.22790000     -34.84120000     -69.81540000
C      -45.27220000     -33.14740000     -68.41780000
H      -46.27350000     -33.22070000     -68.27150000
H      -44.71910000     -32.84040000     -67.50000000
C      -47.68350000     -33.67370000     -70.92850000
H      -46.96010000     -34.33290000     -70.36250000
H      -48.34040000     -33.39830000     -70.12540000
C      -46.94710000     -32.49380000     -71.42900000
C      -47.13840000     -31.94690000     -72.66170000
C      -45.87690000     -31.81410000     -70.76260000
H      -47.97150000     -32.04800000     -73.37180000
C      -45.39650000     -30.67760000     -71.44220000
C      -45.06660000     -32.04580000     -69.49520000
C      -44.09330000     -31.08650000     -69.39950000
S      -46.16550000     -30.50490000     -72.97790000
S      -44.00170000     -29.93100000     -70.71430000
H      -43.39240000     -30.95940000     -68.58970000
