40
Properties=species:S:1:pos:R:3 #=T CELL(abcABC):=T 1.889726e+02=T 90.00000=T Traj:=T positionsangstrom=T Step:=T 0=T Bead:=T pbc="F F F"
C      -43.18330000     -33.76350000     -72.36210000
C      -43.45510000     -34.90710000     -71.60450000
C      -44.46330000     -35.72360000     -71.96070000
C      -45.33430000     -35.47860000     -72.99720000
C      -45.12260000     -34.32920000     -73.72990000
C      -44.07840000     -33.45260000     -73.36360000
H      -42.36930000     -33.02400000     -72.20350000
H      -44.72530000     -36.61310000     -71.35210000
H      -45.78790000     -34.02810000     -74.52900000
H      -44.05520000     -32.54220000     -73.88520000
C      -46.47540000     -36.37060000     -73.31200000
H      -46.24300000     -37.47090000     -73.48780000
H      -46.93400000     -35.95630000     -74.25140000
C      -42.52630000     -35.31140000     -70.48590000
H      -42.31130000     -36.36780000     -70.55800000
H      -41.61140000     -34.68570000     -70.48490000
S      -47.71060000     -36.31760000     -72.02870000
S      -43.20660000     -35.01190000     -68.63630000
C      -48.31180000     -34.54040000     -72.13670000
H      -47.87310000     -34.18160000     -73.08890000
H      -49.40220000     -34.61910000     -72.16720000
C      -44.95730000     -34.46230000     -68.82290000
H      -45.64330000     -35.15790000     -68.21180000
H      -45.22330000     -34.49560000     -69.88100000
C      -45.36910000     -33.03850000     -68.44120000
H      -46.43780000     -33.08430000     -68.21360000
H      -44.94300000     -32.74360000     -67.50810000
C      -47.72170000     -33.62710000     -71.04800000
H      -46.96520000     -34.23290000     -70.57960000
H      -48.50630000     -33.26620000     -70.38030000
C      -46.96330000     -32.41020000     -71.53470000
C      -47.24980000     -31.73430000     -72.69940000
C      -45.87180000     -31.74530000     -70.73400000
H      -47.84480000     -32.22740000     -73.47570000
C      -45.40620000     -30.66140000     -71.44990000
C      -45.04080000     -32.04160000     -69.57670000
C      -43.95280000     -31.17600000     -69.46170000
S      -46.19130000     -30.37990000     -72.96910000
S      -43.99470000     -29.88300000     -70.69890000
H      -43.18380000     -31.19190000     -68.69480000
