40
Properties=species:S:1:pos:R:3 #=T CELL(abcABC):=T 1.889726e+02=T 90.00000=T Traj:=T positionsangstrom=T Step:=T 0=T Bead:=T pbc="F F F"
C      -42.69080000     -34.17820000     -72.49000000
C      -43.41430000     -34.99350000     -71.52350000
C      -44.75540000     -35.27520000     -71.84930000
C      -45.35530000     -34.86740000     -73.05770000
C      -44.63880000     -34.10430000     -73.92530000
C      -43.28770000     -33.81420000     -73.69540000
H      -41.66400000     -33.91910000     -72.24680000
H      -45.37500000     -35.88060000     -71.18740000
H      -45.02970000     -33.82350000     -74.86900000
H      -42.74920000     -33.16780000     -74.42170000
C      -46.67690000     -35.47930000     -73.48520000
H      -46.44970000     -36.42290000     -73.98460000
H      -47.30510000     -34.80470000     -74.11030000
C      -42.72760000     -35.65590000     -70.35680000
H      -43.18780000     -36.68470000     -70.19110000
H      -41.65740000     -35.71450000     -70.47580000
S      -47.77670000     -36.08630000     -72.12740000
S      -42.87900000     -34.52690000     -68.91640000
C      -48.75320000     -34.64230000     -71.57320000
H      -49.03070000     -34.21610000     -72.46590000
H      -49.55030000     -35.10140000     -71.01470000
C      -44.69410000     -34.50370000     -68.55600000
H      -45.01940000     -35.15510000     -67.73870000
H      -45.16170000     -35.12060000     -69.34580000
C      -45.32610000     -33.10320000     -68.43970000
H      -46.39500000     -33.36290000     -68.51550000
H      -45.08710000     -32.71230000     -67.41000000
C      -47.99710000     -33.68150000     -70.60290000
H      -47.50140000     -34.38170000     -69.91050000
H      -48.78700000     -33.19030000     -70.11700000
C      -47.17330000     -32.54650000     -71.26450000
C      -47.54640000     -31.89460000     -72.38150000
C      -45.92310000     -31.98340000     -70.75810000
H      -48.52600000     -32.09160000     -72.77980000
C      -45.37110000     -31.01550000     -71.59040000
C      -45.10510000     -32.12410000     -69.61850000
C      -44.10170000     -31.20300000     -69.50720000
S      -46.38760000     -30.66040000     -72.90880000
S      -43.98410000     -30.17390000     -70.87920000
H      -43.34090000     -31.26930000     -68.76330000
