40
Properties=species:S:1:pos:R:3 #=T CELL(abcABC):=T 1.889726e+02=T 90.00000=T Traj:=T positionsangstrom=T Step:=T 0=T Bead:=T pbc="F F F"
C      -42.87030000     -33.87350000     -72.07470000
C      -43.44170000     -34.86020000     -71.27380000
C      -44.61610000     -35.45110000     -71.74410000
C      -45.33290000     -35.00870000     -72.84690000
C      -44.73380000     -33.95440000     -73.60400000
C      -43.53980000     -33.38480000     -73.18740000
H      -41.97230000     -33.35370000     -71.74560000
H      -45.05800000     -36.34380000     -71.23730000
H      -45.24860000     -33.52030000     -74.46670000
H      -43.04840000     -32.62610000     -73.79300000
C      -46.49650000     -35.71200000     -73.43970000
H      -46.15180000     -36.71300000     -73.80580000
H      -46.99910000     -35.15080000     -74.23400000
C      -42.73160000     -35.43040000     -70.04200000
H      -43.11200000     -36.42710000     -69.91900000
H      -41.72570000     -35.60260000     -70.25150000
S      -47.80020000     -36.08500000     -72.18990000
S      -42.92680000     -34.44750000     -68.46640000
C      -48.73960000     -34.49530000     -71.91460000
H      -49.10780000     -34.09200000     -72.90080000
H      -49.65120000     -34.99050000     -71.40470000
C      -44.83230000     -34.57150000     -68.46500000
H      -45.10260000     -35.06360000     -67.52620000
H      -45.12420000     -35.19700000     -69.34580000
C      -45.47930000     -33.21020000     -68.58010000
H      -46.51230000     -33.35970000     -68.66350000
H      -45.43520000     -32.61830000     -67.64000000
C      -48.09830000     -33.50790000     -70.91240000
H      -47.63570000     -34.12510000     -70.21050000
H      -48.87430000     -32.99620000     -70.35360000
C      -47.09230000     -32.53560000     -71.50880000
C      -47.44020000     -31.90190000     -72.68540000
C      -45.90890000     -32.04370000     -70.91990000
H      -48.27710000     -32.14110000     -73.29120000
C      -45.37860000     -31.04630000     -71.72280000
C      -45.10050000     -32.26880000     -69.71860000
C      -43.96280000     -31.46410000     -69.67320000
S      -46.30930000     -30.67510000     -73.20580000
S      -43.87830000     -30.41210000     -71.10400000
H      -43.30540000     -31.33700000     -68.80250000
