40
Properties=species:S:1:pos:R:3 #=T CELL(abcABC):=T 1.889726e+02=T 90.00000=T Traj:=T positionsangstrom=T Step:=T 0=T Bead:=T pbc="F F F"
C      -42.64950000     -34.22750000     -72.30330000
C      -43.35270000     -35.17850000     -71.58770000
C      -44.67830000     -35.46410000     -71.98460000
C      -45.28050000     -34.97660000     -73.09520000
C      -44.47170000     -34.11120000     -73.93400000
C      -43.21830000     -33.70260000     -73.49670000
H      -41.65470000     -33.82320000     -72.06940000
H      -45.15360000     -36.27930000     -71.36630000
H      -44.90240000     -33.65620000     -74.83380000
H      -42.60550000     -32.95870000     -74.04400000
C      -46.70190000     -35.40180000     -73.53600000
H      -46.68430000     -36.36580000     -74.06890000
H      -47.20270000     -34.66050000     -74.16900000
C      -42.94070000     -35.82670000     -70.33430000
H      -43.42180000     -36.70450000     -70.11720000
H      -41.92900000     -36.19430000     -70.49210000
S      -47.76950000     -35.89930000     -72.12210000
S      -43.08000000     -34.63500000     -68.90520000
C      -48.70290000     -34.46980000     -71.30050000
H      -49.22860000     -33.86180000     -72.02160000
H      -49.38480000     -34.99080000     -70.68760000
C      -44.96050000     -34.42050000     -68.81780000
H      -45.34540000     -35.05380000     -68.07420000
H      -45.46360000     -34.64970000     -69.73680000
C      -45.28850000     -32.92800000     -68.44320000
H      -46.31130000     -32.84150000     -68.05950000
H      -44.67420000     -32.69820000     -67.57550000
C      -47.88620000     -33.53720000     -70.36530000
H      -47.21730000     -34.06840000     -69.76360000
H      -48.56010000     -33.13480000     -69.63090000
C      -47.13760000     -32.51530000     -71.12480000
C      -47.48540000     -32.13400000     -72.37900000
C      -45.91170000     -31.82230000     -70.66690000
H      -48.20070000     -32.51010000     -73.16850000
C      -45.35130000     -30.98270000     -71.64690000
C      -45.08870000     -31.93140000     -69.50440000
C      -43.96380000     -31.11950000     -69.55840000
S      -46.40120000     -30.91840000     -73.03990000
S      -43.97160000     -30.16310000     -71.01730000
H      -43.25480000     -30.97840000     -68.73280000
