40
Properties=species:S:1:pos:R:3 #=T CELL(abcABC):=T 1.889726e+02=T 90.00000=T Traj:=T positionsangstrom=T Step:=T 0=T Bead:=T pbc="F F F"
C      -42.69500000     -34.02580000     -72.01920000
C      -43.32730000     -35.09210000     -71.43020000
C      -44.61640000     -35.50270000     -71.76290000
C      -45.34670000     -34.90270000     -72.80980000
C      -44.59990000     -33.94460000     -73.50830000
C      -43.33210000     -33.44540000     -73.16900000
H      -41.76950000     -33.59830000     -71.68060000
H      -45.04750000     -36.35200000     -71.27030000
H      -45.07560000     -33.45310000     -74.33700000
H      -42.91180000     -32.74800000     -73.80980000
C      -46.66000000     -35.40380000     -73.26300000
H      -46.34120000     -36.15470000     -74.00880000
H      -47.17440000     -34.66660000     -73.89520000
C      -42.66030000     -35.63570000     -70.13770000
H      -43.14790000     -36.64940000     -69.89620000
H      -41.55690000     -35.63790000     -70.25250000
S      -47.93410000     -36.09190000     -72.11410000
S      -43.03390000     -34.47810000     -68.74460000
C      -48.79260000     -34.59850000     -71.57660000
H      -49.24040000     -34.18770000     -72.40510000
H      -49.65110000     -34.83770000     -70.93790000
C      -44.80890000     -34.49120000     -68.53910000
H      -45.00390000     -34.95280000     -67.56760000
H      -45.30240000     -35.05500000     -69.30170000
C      -45.42210000     -33.07430000     -68.53060000
H      -46.52770000     -33.19340000     -68.46160000
H      -45.07470000     -32.57760000     -67.58780000
C      -47.90430000     -33.59060000     -70.78210000
H      -47.27230000     -34.16480000     -70.06430000
H      -48.56810000     -32.96320000     -70.10640000
C      -47.08410000     -32.60260000     -71.53440000
C      -47.46490000     -31.95200000     -72.66090000
C      -45.84960000     -32.05800000     -70.99030000
H      -48.39370000     -32.12660000     -73.13400000
C      -45.32100000     -31.01010000     -71.77230000
C      -45.05570000     -32.26520000     -69.73680000
C      -44.02940000     -31.34020000     -69.69760000
S      -46.36060000     -30.70100000     -73.22130000
S      -43.92880000     -30.29900000     -71.09170000
H      -43.20840000     -31.35590000     -69.00410000
