40
Properties=species:S:1:pos:R:3 #=T CELL(abcABC):=T 1.889726e+02=T 90.00000=T Traj:=T positionsangstrom=T Step:=T 0=T Bead:=T pbc="F F F"
C      -42.99880000     -33.59340000     -72.00030000
C      -43.38820000     -34.74750000     -71.27940000
C      -44.48240000     -35.41600000     -71.74170000
C      -45.18260000     -35.08930000     -72.91540000
C      -44.75130000     -33.95190000     -73.63670000
C      -43.60120000     -33.25390000     -73.17980000
H      -42.05650000     -32.99320000     -71.80530000
H      -44.80520000     -36.30720000     -71.26180000
H      -45.21200000     -33.81260000     -74.60680000
H      -43.31670000     -32.30880000     -73.75650000
C      -46.41860000     -35.83360000     -73.53670000
H      -46.17580000     -36.84630000     -73.82550000
H      -46.74190000     -35.37050000     -74.44920000
C      -42.62490000     -35.31210000     -70.08730000
H      -42.81580000     -36.40080000     -69.93590000
H      -41.51160000     -35.12860000     -70.12920000
S      -47.67500000     -36.17560000     -72.20990000
S      -43.11160000     -34.51340000     -68.50800000
C      -48.59640000     -34.54590000     -72.18050000
H      -48.52290000     -34.05920000     -73.14740000
H      -49.61960000     -34.78340000     -72.02970000
C      -45.02450000     -34.43560000     -68.33510000
H      -45.34740000     -35.00440000     -67.42390000
H      -45.54170000     -35.01170000     -69.06980000
C      -45.65760000     -33.04260000     -68.39310000
H      -46.74990000     -33.16870000     -68.42530000
H      -45.34020000     -32.57080000     -67.47220000
C      -48.10360000     -33.57780000     -71.01080000
H      -47.49310000     -34.18560000     -70.30600000
H      -48.97510000     -33.08480000     -70.42180000
C      -47.19580000     -32.44230000     -71.50250000
C      -47.43680000     -31.79800000     -72.72740000
C      -45.99990000     -31.98240000     -70.83810000
H      -48.20970000     -32.18500000     -73.41960000
C      -45.36030000     -31.09750000     -71.68590000
C      -45.24330000     -32.22630000     -69.60990000
C      -44.02610000     -31.54550000     -69.64430000
S      -46.16390000     -30.69370000     -73.15810000
S      -43.86990000     -30.57890000     -71.07300000
H      -43.36600000     -31.43500000     -68.74630000
