40
Properties=species:S:1:pos:R:3 #=T CELL(abcABC):=T 1.889726e+02=T 90.00000=T Traj:=T positionsangstrom=T Step:=T 0=T Bead:=T pbc="F F F"
C      -42.89520000     -33.17570000     -71.66170000
C      -43.32770000     -34.41640000     -71.07060000
C      -44.23140000     -35.19920000     -71.83370000
C      -44.67020000     -34.88700000     -73.12000000
C      -44.13510000     -33.70110000     -73.71210000
C      -43.35250000     -32.83540000     -72.94250000
H      -42.17120000     -32.47520000     -71.11150000
H      -44.68740000     -36.09290000     -71.35500000
H      -44.53760000     -33.38120000     -74.70690000
H      -42.97720000     -31.88570000     -73.29440000
C      -45.61420000     -35.64640000     -73.94600000
H      -45.14940000     -36.45430000     -74.48190000
H      -46.04720000     -35.00730000     -74.59180000
C      -42.85060000     -34.94220000     -69.74640000
H      -43.12470000     -36.01620000     -69.75070000
H      -41.74310000     -34.83820000     -69.75140000
S      -47.03420000     -36.51630000     -72.90990000
S      -43.58210000     -34.31800000     -68.14730000
C      -48.25250000     -35.18010000     -72.49560000
H      -48.75010000     -34.74870000     -73.39960000
H      -49.11200000     -35.75090000     -72.09480000
C      -45.38740000     -34.58950000     -68.44010000
H      -45.81100000     -34.98740000     -67.52230000
H      -45.44420000     -35.14950000     -69.36290000
C      -46.22830000     -33.27590000     -68.52610000
H      -47.23910000     -33.63240000     -68.70550000
H      -46.29390000     -32.86750000     -67.53900000
C      -47.85490000     -34.09610000     -71.44350000
H      -47.50570000     -34.55370000     -70.58990000
H      -48.83310000     -33.54230000     -71.12140000
C      -46.94060000     -32.99940000     -71.83510000
C      -47.08360000     -32.37160000     -73.08440000
C      -46.06270000     -32.21760000     -70.89380000
H      -47.56310000     -32.77260000     -73.93880000
C      -45.56960000     -31.04050000     -71.49810000
C      -45.71650000     -32.22490000     -69.50570000
C      -44.75970000     -31.33020000     -69.14100000
S      -46.14630000     -30.84780000     -73.17140000
S      -44.50620000     -30.17370000     -70.45990000
H      -44.36270000     -31.03180000     -68.15540000
