40
Properties=species:S:1:pos:R:3 #=T CELL(abcABC):=T 1.889726e+02=T 90.00000=T Traj:=T positionsangstrom=T Step:=T 0=T Bead:=T pbc="F F F"
C      -42.92230000     -33.56370000     -72.00700000
C      -43.38550000     -34.62850000     -71.25370000
C      -44.45560000     -35.33930000     -71.81950000
C      -45.15180000     -35.03940000     -73.00310000
C      -44.73060000     -33.84480000     -73.68900000
C      -43.56700000     -33.18610000     -73.18120000
H      -42.03450000     -32.97250000     -71.70190000
H      -44.77210000     -36.26280000     -71.38350000
H      -45.24750000     -33.46530000     -74.56550000
H      -43.13560000     -32.34580000     -73.80540000
C      -46.23070000     -35.89150000     -73.56450000
H      -45.86900000     -36.90370000     -73.83450000
H      -46.69690000     -35.43070000     -74.45280000
C      -42.69420000     -35.16230000     -70.00830000
H      -42.69210000     -36.23390000     -69.98250000
H      -41.68840000     -34.74010000     -70.06040000
S      -47.55070000     -36.30770000     -72.17320000
S      -43.39990000     -34.45140000     -68.41780000
C      -48.44950000     -34.67570000     -72.06410000
H      -48.61310000     -34.28490000     -73.12710000
H      -49.36320000     -35.05240000     -71.73540000
C      -45.20800000     -34.59020000     -68.72830000
H      -45.60510000     -35.11210000     -67.88400000
H      -45.34660000     -35.06370000     -69.69400000
C      -45.85170000     -33.20880000     -68.63330000
H      -46.97600000     -33.21720000     -68.56500000
H      -45.60860000     -32.75980000     -67.64470000
C      -48.00770000     -33.66900000     -71.00470000
H      -47.56200000     -34.23270000     -70.17710000
H      -48.94910000     -33.30980000     -70.64320000
C      -47.11920000     -32.57460000     -71.57600000
C      -47.35180000     -31.92820000     -72.78260000
C      -45.95490000     -31.99740000     -70.88580000
H      -48.16770000     -32.20640000     -73.45160000
C      -45.27300000     -31.08860000     -71.71090000
C      -45.27910000     -32.24750000     -69.64070000
C      -44.11400000     -31.48060000     -69.48150000
S      -46.19930000     -30.62510000     -73.16080000
S      -43.80540000     -30.47340000     -70.88600000
H      -43.30420000     -31.69270000     -68.73820000
