40
Properties=species:S:1:pos:R:3 #=T CELL(abcABC):=T 1.889726e+02=T 90.00000=T Traj:=T positionsangstrom=T Step:=T 0=T Bead:=T pbc="F F F"
C      -42.59380000     -33.80350000     -71.79360000
C      -43.20290000     -34.93420000     -71.23050000
C      -44.30500000     -35.50020000     -71.90170000
C      -44.84410000     -34.92770000     -73.04430000
C      -44.19860000     -33.74410000     -73.59540000
C      -43.06360000     -33.22350000     -72.96390000
H      -41.70110000     -33.39550000     -71.33030000
H      -44.77240000     -36.40700000     -71.60590000
H      -44.61050000     -33.32720000     -74.50730000
H      -42.42420000     -32.38740000     -73.40690000
C      -45.92910000     -35.74720000     -73.70370000
H      -45.57590000     -36.73230000     -73.96210000
H      -46.41160000     -35.24250000     -74.53880000
C      -42.84800000     -35.50210000     -69.91680000
H      -43.26980000     -36.45790000     -69.72580000
H      -41.73330000     -35.50190000     -69.79420000
S      -47.17150000     -36.32860000     -72.47140000
S      -43.45400000     -34.37250000     -68.51030000
C      -48.31400000     -34.86410000     -72.24400000
H      -48.41930000     -34.30470000     -73.27800000
H      -49.25100000     -35.32820000     -72.01530000
C      -45.27880000     -34.48330000     -68.80130000
H      -45.72630000     -35.24910000     -68.20340000
H      -45.52660000     -34.90500000     -69.77570000
C      -46.12030000     -33.17640000     -68.59460000
H      -47.13780000     -33.46760000     -68.63260000
H      -45.92490000     -32.80210000     -67.51810000
C      -47.94480000     -33.85470000     -71.12740000
H      -47.34710000     -34.41590000     -70.35730000
H      -48.85190000     -33.39190000     -70.71370000
C      -47.03870000     -32.79900000     -71.75160000
C      -47.11780000     -32.25180000     -72.99130000
C      -46.17050000     -32.02760000     -70.94240000
H      -47.77100000     -32.51860000     -73.81020000
C      -45.55860000     -30.94240000     -71.57260000
C      -45.69920000     -32.13230000     -69.57120000
C      -44.97190000     -31.09050000     -69.13220000
S      -46.00720000     -30.81960000     -73.21000000
S      -44.55370000     -29.95240000     -70.50490000
H      -44.33840000     -31.09840000     -68.25180000
