40
Properties=species:S:1:pos:R:3 #=T CELL(abcABC):=T 1.889726e+02=T 90.00000=T Traj:=T positionsangstrom=T Step:=T 0=T Bead:=T pbc="F F F"
C      -45.25120000     -30.44110000     -70.09590000
C      -43.87200000     -30.73750000     -70.19130000
C      -43.23740000     -31.64910000     -69.33280000
C      -43.99070000     -32.26000000     -68.30370000
C      -45.29910000     -31.88630000     -68.14540000
C      -45.94640000     -30.98640000     -69.01740000
H      -45.79520000     -29.74080000     -70.79420000
H      -42.23160000     -31.93680000     -69.57320000
H      -45.98600000     -32.15420000     -67.30180000
H      -46.93370000     -30.69160000     -68.69130000
C      -43.45050000     -33.45820000     -67.55110000
H      -44.25870000     -33.85990000     -66.95210000
H      -42.66730000     -33.14980000     -66.89560000
C      -43.08900000     -30.11930000     -71.33080000
H      -43.45490000     -29.09810000     -71.62200000
H      -42.06600000     -29.91500000     -71.02190000
S      -42.94640000     -34.77520000     -68.67420000
S      -42.89280000     -31.18160000     -72.77800000
C      -44.54030000     -35.30940000     -69.40270000
H      -44.45510000     -36.45700000     -69.53820000
H      -45.25870000     -35.15070000     -68.63240000
C      -44.60410000     -31.87950000     -73.03960000
H      -45.17850000     -31.04330000     -73.55130000
H      -44.94910000     -31.95440000     -72.04810000
C      -44.56610000     -33.18700000     -73.78780000
H      -44.19860000     -32.98890000     -74.83080000
H      -43.79780000     -33.87680000     -73.35350000
C      -44.69650000     -34.73030000     -70.80760000
H      -43.95290000     -35.35060000     -71.42580000
H      -44.44920000     -33.61570000     -70.85160000
C      -46.10760000     -34.95610000     -71.34680000
C      -47.12020000     -35.60950000     -70.68360000
C      -46.54450000     -34.51590000     -72.68080000
H      -46.93940000     -36.18120000     -69.75890000
C      -47.85980000     -34.85140000     -72.95220000
C      -45.93740000     -33.80520000     -73.77950000
C      -46.63780000     -33.90620000     -74.94590000
S      -48.61860000     -35.78340000     -71.67920000
S      -48.20600000     -34.56730000     -74.63790000
H      -46.40420000     -33.66190000     -76.00360000
