40
Properties=species:S:1:pos:R:3 #=T CELL(abcABC):=T 1.889726e+02=T 90.00000=T Traj:=T positionsangstrom=T Step:=T 0=T Bead:=T pbc="F F F"
C      -41.68600000     -37.20880000     -71.70510000
C      -42.32080000     -35.93190000     -71.59710000
C      -43.47590000     -35.72560000     -72.35420000
C      -44.15940000     -36.72680000     -73.11910000
C      -43.56930000     -38.02690000     -73.14100000
C      -42.38890000     -38.22410000     -72.43940000
H      -40.77860000     -37.39130000     -71.13660000
H      -43.91120000     -34.71710000     -72.28390000
H      -43.98050000     -38.84490000     -73.79900000
H      -41.81630000     -39.11840000     -72.41510000
C      -45.36330000     -36.21700000     -73.86580000
H      -45.54010000     -37.07560000     -74.54240000
H      -45.10920000     -35.25470000     -74.44110000
C      -41.72330000     -34.82250000     -70.73470000
H      -40.77210000     -35.27840000     -70.36430000
H      -41.52300000     -33.88950000     -71.39550000
S      -46.91750000     -35.94090000     -72.89940000
S      -42.75280000     -34.39880000     -69.24730000
C      -46.82190000     -34.05300000     -72.82210000
H      -45.80360000     -33.70590000     -72.73400000
H      -47.02030000     -33.70350000     -73.83190000
C      -43.50670000     -32.84040000     -69.67560000
H      -42.98260000     -32.54790000     -70.60440000
H      -43.19640000     -32.20360000     -68.86430000
C      -45.03370000     -32.86810000     -69.73710000
H      -45.33060000     -33.58670000     -70.56170000
H      -45.40880000     -33.29080000     -68.74250000
C      -47.71970000     -33.45340000     -71.67240000
H      -47.38430000     -33.81470000     -70.72530000
H      -48.74700000     -33.71180000     -71.69710000
C      -47.66560000     -31.94990000     -71.59570000
C      -48.67600000     -31.19600000     -72.11920000
C      -46.71250000     -31.17030000     -70.81170000
H      -49.54930000     -31.52310000     -72.76820000
C      -47.01370000     -29.80790000     -70.79330000
C      -45.60440000     -31.47740000     -69.96210000
C      -45.06140000     -30.31640000     -69.34340000
S      -48.49970000     -29.50930000     -71.70030000
S      -46.08460000     -28.90340000     -69.61130000
H      -44.13140000     -30.27440000     -68.80340000
