40
Properties=species:S:1:pos:R:3 #=T CELL(abcABC):=T 1.889726e+02=T 90.00000=T Traj:=T positionsangstrom=T Step:=T 0=T Bead:=T pbc="F F F"
C      -41.88000000     -33.63790000     -68.73800000
C      -41.91080000     -34.39260000     -69.92710000
C      -42.10580000     -33.77510000     -71.17960000
C      -42.22470000     -32.37700000     -71.13560000
C      -42.12780000     -31.58970000     -69.97350000
C      -41.93280000     -32.24030000     -68.75010000
H      -41.90320000     -34.18590000     -67.78900000
H      -42.30260000     -34.39690000     -72.07970000
H      -42.18080000     -30.54610000     -69.92430000
H      -42.07160000     -31.76040000     -67.76500000
C      -42.43620000     -31.72070000     -72.48600000
H      -41.81170000     -32.09350000     -73.32740000
H      -42.29650000     -30.57380000     -72.46850000
C      -42.06600000     -35.94200000     -69.77290000
H      -41.81420000     -36.46150000     -70.70850000
H      -41.44370000     -36.35990000     -68.98410000
S      -44.17630000     -31.78610000     -73.18540000
S      -43.89260000     -36.33450000     -69.35340000
C      -45.02080000     -30.49490000     -72.16470000
H      -44.36210000     -29.80070000     -71.72320000
H      -45.53780000     -29.90180000     -72.97540000
C      -44.90960000     -35.49410000     -70.60760000
H      -45.61300000     -36.22810000     -71.06190000
H      -44.23770000     -35.10140000     -71.38900000
C      -45.74030000     -34.31610000     -70.02840000
H      -45.99410000     -34.70060000     -69.09750000
H      -45.12030000     -33.39380000     -69.88660000
C      -46.00670000     -31.01360000     -71.13200000
H      -46.44410000     -30.17660000     -70.51700000
H      -45.57560000     -31.65650000     -70.38180000
C      -47.10580000     -31.76090000     -71.79280000
C      -47.91500000     -31.08850000     -72.69830000
C      -47.43240000     -33.13110000     -71.61510000
H      -47.76220000     -30.08420000     -73.06450000
C      -48.62710000     -33.45870000     -72.34740000
C      -46.90890000     -34.30340000     -70.93740000
C      -47.67490000     -35.40610000     -71.08490000
S      -49.13420000     -32.24860000     -73.39000000
S      -49.00700000     -35.15420000     -72.19850000
H      -47.65380000     -36.25800000     -70.51180000
