40
Properties=species:S:1:pos:R:3 #=T CELL(abcABC):=T 1.889726e+02=T 90.00000=T Traj:=T positionsangstrom=T Step:=T 0=T Bead:=T pbc="F F F"
C      -42.01980000     -37.20640000     -71.68280000
C      -42.38810000     -35.87830000     -71.70100000
C      -43.55840000     -35.49850000     -72.47210000
C      -44.23690000     -36.48620000     -73.18280000
C      -43.74670000     -37.77210000     -73.28180000
C      -42.62730000     -38.12890000     -72.51500000
H      -41.18380000     -37.51340000     -71.02470000
H      -43.92390000     -34.44390000     -72.43410000
H      -44.35650000     -38.54090000     -73.73250000
H      -42.15610000     -39.14760000     -72.61150000
C      -45.54530000     -36.18540000     -73.88400000
H      -45.81600000     -36.92500000     -74.59090000
H      -45.50360000     -35.27200000     -74.43070000
C      -41.65820000     -34.96150000     -70.77240000
H      -40.73960000     -35.23030000     -70.47560000
H      -41.44690000     -33.98630000     -71.15800000
S      -46.90610000     -35.77430000     -72.66500000
S      -42.67120000     -34.67130000     -69.24840000
C      -46.97000000     -33.96370000     -72.84180000
H      -45.91320000     -33.52150000     -72.72230000
H      -47.40240000     -33.74840000     -73.79920000
C      -43.22900000     -32.85340000     -69.49440000
H      -42.64810000     -32.31330000     -70.23600000
H      -43.04450000     -32.34080000     -68.56940000
C      -44.72080000     -32.87650000     -70.01140000
H      -44.76290000     -33.16940000     -70.96550000
H      -45.20660000     -33.70320000     -69.51340000
C      -47.87920000     -33.44930000     -71.68680000
H      -47.56720000     -33.97990000     -70.80830000
H      -48.87000000     -33.73670000     -71.98880000
C      -47.75310000     -31.98310000     -71.49520000
C      -48.71690000     -31.17590000     -71.99960000
C      -46.78390000     -31.31640000     -70.59970000
H      -49.40610000     -31.39210000     -72.80160000
C      -47.05640000     -29.92780000     -70.65270000
C      -45.52190000     -31.56860000     -69.94930000
C      -44.98360000     -30.41330000     -69.41650000
S      -48.39540000     -29.49370000     -71.67060000
S      -45.91870000     -28.97050000     -69.77950000
H      -43.95500000     -30.38610000     -69.07650000
