40
Properties=species:S:1:pos:R:3 #=T CELL(abcABC):=T 1.889726e+02=T 90.00000=T Traj:=T positionsangstrom=T Step:=T 0=T Bead:=T pbc="F F F"
C      -42.67410000     -32.68480000     -71.12930000
C      -43.00430000     -33.90470000     -70.58450000
C      -43.64300000     -34.81940000     -71.39970000
C      -43.97250000     -34.55620000     -72.75620000
C      -43.63460000     -33.26990000     -73.17120000
C      -43.03030000     -32.29140000     -72.39930000
H      -42.23220000     -31.90070000     -70.45500000
H      -43.71570000     -35.80090000     -70.88860000
H      -43.95990000     -33.04340000     -74.16590000
H      -42.92860000     -31.30230000     -72.73940000
C      -44.55740000     -35.64430000     -73.57830000
H      -43.82160000     -36.44530000     -73.92860000
H      -45.12320000     -35.28820000     -74.50790000
C      -42.67430000     -34.19790000     -69.12830000
H      -42.65920000     -35.26400000     -69.00340000
H      -41.73050000     -33.68220000     -68.77990000
S      -45.74180000     -36.70510000     -72.53430000
S      -43.86420000     -33.54690000     -67.87470000
C      -47.43840000     -36.08520000     -72.46670000
H      -47.91830000     -35.99220000     -73.45770000
H      -48.17140000     -36.89970000     -72.02610000
C      -45.41250000     -34.32940000     -68.42310000
H      -45.77310000     -35.05540000     -67.72440000
H      -45.15820000     -34.92530000     -69.30130000
C      -46.47370000     -33.27410000     -68.76530000
H      -47.46070000     -33.75530000     -68.82510000
H      -46.52230000     -32.57880000     -67.87310000
C      -47.50610000     -34.87660000     -71.50980000
H      -46.81350000     -34.96620000     -70.65600000
H      -48.55340000     -34.81800000     -71.13540000
C      -47.22880000     -33.49320000     -72.05030000
C      -47.38620000     -33.21920000     -73.35350000
C      -46.63120000     -32.46690000     -71.27630000
H      -47.84740000     -33.85110000     -74.10680000
C      -46.42410000     -31.35180000     -72.01170000
C      -46.21830000     -32.30130000     -69.91170000
C      -45.58880000     -31.08200000     -69.65850000
S      -46.93520000     -31.54310000     -73.71490000
S      -45.45020000     -30.12800000     -71.16010000
H      -45.06520000     -30.82280000     -68.71220000
