40
Properties=species:S:1:pos:R:3 #=T CELL(abcABC):=T 1.889726e+02=T 90.00000=T Traj:=T positionsangstrom=T Step:=T 0=T Bead:=T pbc="F F F"
C      -42.57450000     -32.65690000     -71.08930000
C      -42.90890000     -33.83350000     -70.57080000
C      -43.62210000     -34.74490000     -71.32120000
C      -44.10420000     -34.44570000     -72.62820000
C      -43.74590000     -33.18670000     -73.11730000
C      -43.02990000     -32.27810000     -72.33910000
H      -42.00600000     -31.94460000     -70.46510000
H      -44.02430000     -35.70490000     -70.87930000
H      -44.14450000     -32.74100000     -74.03830000
H      -42.81310000     -31.27740000     -72.80150000
C      -44.94270000     -35.42890000     -73.48070000
H      -44.27990000     -35.88500000     -74.23970000
H      -45.62230000     -34.89240000     -74.05630000
C      -42.53160000     -34.19320000     -69.13280000
H      -42.41710000     -35.30070000     -69.02500000
H      -41.59670000     -33.78140000     -68.77710000
S      -45.76620000     -36.85640000     -72.67470000
S      -43.84080000     -33.64850000     -67.95620000
C      -47.44490000     -36.08360000     -72.54650000
H      -47.76990000     -35.77340000     -73.49910000
H      -48.07210000     -36.91130000     -72.17250000
C      -45.44120000     -34.38640000     -68.57670000
H      -45.83440000     -35.07850000     -67.82230000
H      -45.32800000     -34.85180000     -69.56770000
C      -46.47600000     -33.18010000     -68.75370000
H      -47.47760000     -33.53760000     -68.84780000
H      -46.45610000     -32.61220000     -67.85220000
C      -47.54750000     -34.93170000     -71.46820000
H      -47.03510000     -35.20330000     -70.60460000
H      -48.60390000     -35.00870000     -71.11720000
C      -47.30360000     -33.52340000     -71.95150000
C      -47.70010000     -33.07470000     -73.17240000
C      -46.53380000     -32.50320000     -71.27420000
H      -48.32780000     -33.64300000     -73.88770000
C      -46.20590000     -31.41820000     -72.08220000
C      -46.03890000     -32.26810000     -69.87780000
C      -45.39420000     -31.03740000     -69.68280000
S      -46.97060000     -31.56270000     -73.65220000
S      -45.35040000     -30.15830000     -71.18900000
H      -45.09930000     -30.64000000     -68.71060000
