40
Properties=species:S:1:pos:R:3 #=T CELL(abcABC):=T 1.889726e+02=T 90.00000=T Traj:=T positionsangstrom=T Step:=T 0=T Bead:=T pbc="F F F"
C      -44.45070000     -29.68470000     -70.19400000
C      -45.04760000     -30.65050000     -69.33690000
C      -46.32730000     -31.06860000     -69.56560000
C      -47.06320000     -30.63920000     -70.68260000
C      -46.43890000     -29.76070000     -71.60730000
C      -45.13780000     -29.30570000     -71.35550000
H      -43.42100000     -29.25840000     -69.92420000
H      -46.86220000     -31.68260000     -68.85350000
H      -47.00090000     -29.31190000     -72.51980000
H      -44.60080000     -28.82370000     -72.13180000
C      -48.51830000     -31.04830000     -70.77650000
H      -48.98930000     -30.68950000     -71.76180000
H      -49.13000000     -30.56660000     -69.95660000
C      -44.39960000     -31.15270000     -68.06250000
H      -43.42120000     -30.84850000     -67.97780000
H      -44.94040000     -30.90240000     -67.17560000
S      -49.06600000     -32.88840000     -70.55760000
S      -44.16080000     -32.97270000     -68.01330000
C      -48.13870000     -33.88800000     -71.78780000
H      -48.76300000     -34.80170000     -72.03990000
H      -48.06970000     -33.16540000     -72.56800000
C      -43.70720000     -33.36610000     -69.78720000
H      -42.75750000     -32.99170000     -70.11520000
H      -44.46670000     -33.00880000     -70.48340000
C      -43.80060000     -34.85330000     -69.91850000
H      -43.10080000     -35.33380000     -69.28630000
H      -44.81600000     -35.11540000     -69.60370000
C      -46.73100000     -34.33090000     -71.33870000
H      -46.66320000     -34.99480000     -70.41290000
H      -46.26770000     -33.36020000     -71.01730000
C      -45.91600000     -34.88350000     -72.48220000
C      -46.40440000     -35.09290000     -73.76880000
C      -44.55300000     -35.24670000     -72.42560000
H      -47.39960000     -34.85040000     -74.05090000
C      -43.95310000     -35.53450000     -73.66090000
C      -43.57020000     -35.22560000     -71.31170000
C      -42.32540000     -35.51920000     -71.79750000
S      -45.15480000     -35.74490000     -74.85110000
S      -42.28660000     -36.01580000     -73.47660000
H      -41.31650000     -35.50000000     -71.30120000
