40
Properties=species:S:1:pos:R:3 #=T CELL(abcABC):=T 1.889726e+02=T 90.00000=T Traj:=T positionsangstrom=T Step:=T 0=T Bead:=T pbc="F F F"
C      -42.96890000     -32.40290000     -71.04200000
C      -43.18940000     -33.63260000     -70.32690000
C      -43.63800000     -34.77370000     -71.07750000
C      -43.86160000     -34.69130000     -72.43600000
C      -43.59120000     -33.47770000     -73.11680000
C      -43.10370000     -32.37130000     -72.46220000
H      -42.48050000     -31.58750000     -70.46910000
H      -43.72680000     -35.68930000     -70.59340000
H      -43.87000000     -33.25690000     -74.20500000
H      -42.90950000     -31.40790000     -72.95080000
C      -44.28250000     -35.87770000     -73.30050000
H      -43.30260000     -36.28200000     -73.59280000
H      -44.79760000     -35.48260000     -74.16710000
C      -42.89950000     -33.67920000     -68.85410000
H      -42.45440000     -34.67650000     -68.48770000
H      -42.22210000     -32.82560000     -68.62290000
S      -45.38410000     -37.09890000     -72.48940000
S      -44.31250000     -33.26470000     -67.75820000
C      -46.97260000     -36.30260000     -72.74490000
H      -47.06770000     -36.03350000     -73.79850000
H      -47.75060000     -37.03500000     -72.63370000
C      -45.75800000     -34.24070000     -68.42880000
H      -46.24940000     -35.00830000     -67.76540000
H      -45.40430000     -34.89580000     -69.27190000
C      -46.90990000     -33.32920000     -68.94040000
H      -47.80940000     -33.88690000     -69.20600000
H      -47.22770000     -32.73960000     -68.05680000
C      -47.33150000     -35.03390000     -71.87420000
H      -46.83990000     -35.08600000     -70.90020000
H      -48.46660000     -35.03070000     -71.91770000
C      -46.87310000     -33.62230000     -72.33570000
C      -46.64910000     -33.32510000     -73.65660000
C      -46.60480000     -32.50280000     -71.44900000
H      -46.84510000     -33.86110000     -74.58580000
C      -46.29160000     -31.32740000     -72.11240000
C      -46.58090000     -32.29440000     -69.99150000
C      -46.17620000     -31.04730000     -69.66360000
S      -46.33200000     -31.54200000     -73.83460000
S      -45.88770000     -30.02200000     -71.05980000
H      -46.22480000     -30.46700000     -68.72730000
