40
Properties=species:S:1:pos:R:3 #=T CELL(abcABC):=T 1.889726e+02=T 90.00000=T Traj:=T positionsangstrom=T Step:=T 0=T Bead:=T pbc="F F F"
C      -44.51400000     -29.68260000     -70.14630000
C      -45.10250000     -30.57370000     -69.24710000
C      -46.43260000     -30.99810000     -69.41630000
C      -47.09670000     -30.60790000     -70.59100000
C      -46.47490000     -29.74600000     -71.54050000
C      -45.18440000     -29.32500000     -71.33260000
H      -43.48000000     -29.28980000     -70.03870000
H      -46.87710000     -31.83250000     -68.79440000
H      -47.04580000     -29.47410000     -72.44080000
H      -44.72980000     -28.66170000     -72.09770000
C      -48.42800000     -31.12000000     -70.99970000
H      -48.41450000     -31.14860000     -72.07080000
H      -49.16510000     -30.43420000     -70.82000000
C      -44.16580000     -31.10990000     -68.09660000
H      -43.12240000     -30.65710000     -68.17660000
H      -44.62140000     -30.68500000     -67.10110000
S      -48.93600000     -32.76850000     -70.43260000
S      -44.25470000     -32.93200000     -68.09850000
C      -48.07970000     -33.78120000     -71.77910000
H      -48.73710000     -34.64820000     -71.92660000
H      -48.18550000     -33.32970000     -72.75530000
C      -43.61300000     -33.36760000     -69.71400000
H      -42.53310000     -33.05500000     -69.79720000
H      -44.14340000     -32.81550000     -70.53240000
C      -43.69760000     -34.84540000     -69.93700000
H      -42.86760000     -35.31670000     -69.35930000
H      -44.55890000     -35.27890000     -69.33430000
C      -46.70070000     -34.24820000     -71.34190000
H      -46.87500000     -34.74250000     -70.44740000
H      -45.94560000     -33.47090000     -71.06280000
C      -45.92960000     -34.97520000     -72.41070000
C      -46.40530000     -35.04240000     -73.73920000
C      -44.55580000     -35.32680000     -72.37690000
H      -47.38260000     -34.76160000     -74.07460000
C      -44.02950000     -35.57430000     -73.63280000
C      -43.53480000     -35.38470000     -71.34340000
C      -42.32070000     -35.83670000     -71.84260000
S      -45.26080000     -35.68790000     -74.86600000
S      -42.36080000     -36.11330000     -73.61130000
H      -41.31130000     -35.91610000     -71.29290000
