40
Properties=species:S:1:pos:R:3 #=T CELL(abcABC):=T 1.889726e+02=T 90.00000=T Traj:=T positionsangstrom=T Step:=T 0=T Bead:=T pbc="F F F"
C      -45.79670000     -37.11220000     -73.06360000
C      -46.78510000     -36.09360000     -73.05850000
C      -47.41720000     -35.74280000     -71.83140000
C      -47.01610000     -36.32010000     -70.64790000
C      -46.03980000     -37.31730000     -70.66350000
C      -45.50650000     -37.75240000     -71.84410000
H      -45.27290000     -37.40870000     -74.01960000
H      -48.18170000     -34.98750000     -71.70950000
H      -45.61080000     -37.75380000     -69.79590000
H      -44.87430000     -38.60300000     -71.87080000
C      -47.61840000     -35.89970000     -69.37410000
H      -48.10380000     -36.75200000     -68.85340000
H      -48.48290000     -35.20000000     -69.62130000
C      -47.15840000     -35.38840000     -74.27750000
H      -47.31860000     -36.11200000     -75.09250000
H      -48.03990000     -34.78490000     -74.07150000
S      -46.33430000     -35.24560000     -68.21720000
S      -45.87690000     -34.17230000     -74.90740000
C      -45.79350000     -33.71680000     -69.05000000
H      -46.53990000     -33.32560000     -69.76880000
H      -45.65220000     -32.84040000     -68.34850000
C      -45.16290000     -33.45440000     -73.39570000
H      -44.30140000     -32.93850000     -73.78410000
H      -44.80230000     -34.22850000     -72.78200000
C      -46.13620000     -32.51090000     -72.60070000
H      -46.95570000     -32.10510000     -73.12370000
H      -46.58440000     -33.06490000     -71.78130000
C      -44.47040000     -33.81010000     -69.84560000
H      -44.74770000     -34.40180000     -70.74210000
H      -43.72970000     -34.37570000     -69.24150000
C      -43.89530000     -32.42120000     -70.02160000
C      -42.80220000     -31.98660000     -69.26450000
C      -44.34670000     -31.37220000     -70.90950000
H      -42.15210000     -32.56710000     -68.63460000
C      -43.75140000     -30.15830000     -70.74430000
C      -45.41470000     -31.33200000     -71.97260000
C      -45.35960000     -30.09880000     -72.58720000
S      -42.45460000     -30.24980000     -69.50350000
S      -44.34780000     -28.86430000     -71.79750000
H      -45.75370000     -29.87460000     -73.54190000
