40
Properties=species:S:1:pos:R:3 #=T CELL(abcABC):=T 1.889726e+02=T 90.00000=T Traj:=T positionsangstrom=T Step:=T 0=T Bead:=T pbc="F F F"
C      -42.60080000     -32.25090000     -70.51270000
C      -43.17760000     -33.47680000     -70.02490000
C      -43.60570000     -34.44440000     -70.93650000
C      -43.46680000     -34.30300000     -72.32580000
C      -42.77100000     -33.17900000     -72.74730000
C      -42.31150000     -32.16380000     -71.89340000
H      -42.07160000     -31.59600000     -69.84400000
H      -44.02690000     -35.37120000     -70.44860000
H      -42.70840000     -33.02330000     -73.82650000
H      -41.70360000     -31.36680000     -72.34630000
C      -43.91200000     -35.39210000     -73.29910000
H      -42.99480000     -35.87610000     -73.73110000
H      -44.43040000     -35.02980000     -74.19550000
C      -43.24210000     -33.85670000     -68.54080000
H      -43.21870000     -34.90720000     -68.51180000
H      -42.46690000     -33.52870000     -67.90060000
S      -44.90730000     -36.77510000     -72.65080000
S      -44.80550000     -33.21120000     -67.81610000
C      -46.62150000     -36.34580000     -72.99550000
H      -46.78320000     -35.85050000     -73.98410000
H      -47.25730000     -37.24160000     -72.95120000
C      -46.07020000     -34.35270000     -68.62170000
H      -46.29560000     -35.00200000     -67.84530000
H      -45.59590000     -34.88410000     -69.48280000
C      -47.26670000     -33.57370000     -69.03500000
H      -48.16460000     -34.20080000     -69.20940000
H      -47.64590000     -32.98410000     -68.14150000
C      -47.19850000     -35.28320000     -72.10570000
H      -47.09540000     -35.33010000     -71.03140000
H      -48.27340000     -35.42040000     -72.19060000
C      -46.91240000     -33.87640000     -72.49070000
C      -46.59690000     -33.46590000     -73.75530000
C      -46.83140000     -32.69740000     -71.52860000
H      -46.54150000     -34.04730000     -74.64920000
C      -46.50760000     -31.52400000     -72.21300000
C      -46.91800000     -32.53010000     -70.09390000
C      -46.75240000     -31.21920000     -69.81780000
S      -46.31520000     -31.71960000     -73.87530000
S      -46.27810000     -30.18510000     -71.15170000
H      -46.93040000     -30.72330000     -68.89890000
