40
Properties=species:S:1:pos:R:3 #=T CELL(abcABC):=T 1.889726e+02=T 90.00000=T Traj:=T positionsangstrom=T Step:=T 0=T Bead:=T pbc="F F F"
C      -43.40530000     -32.07530000     -70.15200000
C      -43.40300000     -33.38290000     -69.56690000
C      -43.26210000     -34.52150000     -70.35310000
C      -43.07150000     -34.31110000     -71.74990000
C      -43.07140000     -33.06590000     -72.33900000
C      -43.18580000     -31.90080000     -71.49090000
H      -43.47330000     -31.31240000     -69.42380000
H      -43.36580000     -35.52620000     -69.95050000
H      -42.82350000     -32.92950000     -73.39520000
H      -43.06750000     -30.93900000     -72.02260000
C      -42.93140000     -35.52040000     -72.73280000
H      -41.95560000     -36.02020000     -72.51500000
H      -43.03150000     -35.10900000     -73.74180000
C      -43.71520000     -33.58030000     -68.12800000
H      -43.45700000     -34.58200000     -67.83590000
H      -43.14350000     -32.98820000     -67.38770000
S      -44.11930000     -36.82730000     -72.38060000
S      -45.42320000     -33.05640000     -67.69300000
C      -45.58240000     -36.41010000     -73.38050000
H      -45.25000000     -35.94930000     -74.30920000
H      -46.09310000     -37.32820000     -73.53450000
C      -46.21540000     -34.41910000     -68.61450000
H      -46.62590000     -35.14390000     -67.88500000
H      -45.42830000     -34.84210000     -69.33440000
C      -47.45210000     -33.78880000     -69.54320000
H      -47.74680000     -34.58900000     -70.18880000
H      -48.29980000     -33.57050000     -68.95630000
C      -46.54870000     -35.47450000     -72.58880000
H      -46.54650000     -35.65830000     -71.51470000
H      -47.55310000     -35.68570000     -72.90740000
C      -46.45080000     -33.93960000     -72.79380000
C      -46.25720000     -33.42940000     -74.09450000
C      -46.75410000     -32.84030000     -71.86540000
H      -45.87670000     -34.04420000     -74.86450000
C      -46.49860000     -31.58860000     -72.46880000
C      -47.15350000     -32.67650000     -70.50540000
C      -47.39100000     -31.32940000     -70.16500000
S      -46.14150000     -31.62950000     -74.12310000
S      -46.85880000     -30.23510000     -71.45260000
H      -47.86930000     -30.89520000     -69.30710000
