40
Properties=species:S:1:pos:R:3 #=T CELL(abcABC):=T 1.889726e+02=T 90.00000=T Traj:=T positionsangstrom=T Step:=T 0=T Bead:=T pbc="F F F"
C      -42.37820000     -32.35760000     -70.40970000
C      -43.02970000     -33.52640000     -69.98310000
C      -43.40510000     -34.47240000     -70.93760000
C      -43.44570000     -34.23170000     -72.28170000
C      -42.95370000     -32.97600000     -72.68830000
C      -42.40530000     -32.12220000     -71.80530000
H      -42.07950000     -31.67010000     -69.62450000
H      -43.80170000     -35.44770000     -70.70800000
H      -42.92260000     -32.64020000     -73.73640000
H      -41.90400000     -31.23430000     -72.22100000
C      -43.81240000     -35.25400000     -73.33720000
H      -42.81190000     -35.56350000     -73.69240000
H      -44.42470000     -34.77330000     -74.08450000
C      -43.21830000     -33.79700000     -68.53230000
H      -43.02250000     -34.87210000     -68.21270000
H      -42.49330000     -33.15310000     -67.92330000
S      -44.78520000     -36.67760000     -72.65350000
S      -44.88110000     -33.20760000     -67.81770000
C      -46.58690000     -36.44460000     -72.98610000
H      -46.81070000     -36.37990000     -74.10110000
H      -46.93670000     -37.38360000     -72.67600000
C      -46.17010000     -34.33600000     -68.60680000
H      -46.51930000     -35.18040000     -67.95390000
H      -45.63660000     -34.79240000     -69.52000000
C      -47.35270000     -33.55830000     -69.11130000
H      -48.11110000     -34.22510000     -69.44220000
H      -47.69350000     -32.99340000     -68.25680000
C      -47.25170000     -35.33890000     -72.12320000
H      -46.90290000     -35.49370000     -71.10330000
H      -48.33600000     -35.60260000     -72.23250000
C      -46.97620000     -33.91500000     -72.45010000
C      -46.79290000     -33.47970000     -73.73730000
C      -46.77460000     -32.75920000     -71.55550000
H      -46.82340000     -34.15470000     -74.62200000
C      -46.54780000     -31.57190000     -72.22860000
C      -47.02020000     -32.55140000     -70.18970000
C      -46.81050000     -31.24730000     -69.81570000
S      -46.20150000     -31.83770000     -73.93530000
S      -46.37670000     -30.16770000     -71.15230000
H      -46.92000000     -30.78280000     -68.89650000
