40
Properties=species:S:1:pos:R:3 #=T CELL(abcABC):=T 1.889726e+02=T 90.00000=T Traj:=T positionsangstrom=T Step:=T 0=T Bead:=T pbc="F F F"
C      -45.91050000     -36.96930000     -73.04700000
C      -46.94090000     -35.98770000     -73.02080000
C      -47.60440000     -35.62790000     -71.83100000
C      -47.19170000     -36.28650000     -70.63880000
C      -46.25050000     -37.27400000     -70.70040000
C      -45.57350000     -37.61290000     -71.85370000
H      -45.39580000     -37.19020000     -73.94030000
H      -48.23660000     -34.72340000     -71.82600000
H      -46.10090000     -37.76030000     -69.70180000
H      -44.80630000     -38.40050000     -71.80150000
C      -47.73260000     -35.94360000     -69.27870000
H      -47.93290000     -36.81030000     -68.69870000
H      -48.61970000     -35.33910000     -69.18680000
C      -47.25690000     -35.25300000     -74.32170000
H      -47.53140000     -35.82480000     -75.19340000
H      -48.15060000     -34.63740000     -74.15650000
S      -46.35650000     -35.22730000     -68.26080000
S      -45.83810000     -34.31670000     -75.01330000
C      -45.77190000     -33.70550000     -69.19160000
H      -46.44180000     -33.47730000     -69.98640000
H      -45.83060000     -32.88710000     -68.47730000
C      -45.00850000     -33.41530000     -73.54390000
H      -44.29570000     -32.70540000     -74.03420000
H      -44.33110000     -34.06150000     -72.94460000
C      -46.00680000     -32.55110000     -72.72070000
H      -46.82330000     -32.31800000     -73.35460000
H      -46.48770000     -33.28310000     -71.94840000
C      -44.31240000     -33.87340000     -69.71280000
H      -44.25810000     -34.50900000     -70.59030000
H      -43.63790000     -34.40660000     -69.01450000
C      -43.73660000     -32.46360000     -69.95810000
C      -42.73840000     -31.92440000     -69.14730000
C      -44.31180000     -31.47200000     -70.89350000
H      -42.00240000     -32.41660000     -68.48490000
C      -43.68890000     -30.24870000     -70.70510000
C      -45.30390000     -31.38460000     -72.01020000
C      -45.44530000     -30.12100000     -72.43780000
S      -42.34960000     -30.24500000     -69.57820000
S      -44.35940000     -28.90440000     -71.63010000
H      -45.97530000     -29.89000000     -73.29800000
