40
Properties=species:S:1:pos:R:3 #=T CELL(abcABC):=T 1.889726e+02=T 90.00000=T Traj:=T positionsangstrom=T Step:=T 0=T Bead:=T pbc="F F F"
C      -45.64060000     -37.36170000     -72.97460000
C      -46.57110000     -36.35100000     -73.02060000
C      -47.10360000     -35.86840000     -71.78810000
C      -46.75550000     -36.50400000     -70.57170000
C      -45.78860000     -37.56020000     -70.56920000
C      -45.13570000     -37.84030000     -71.73240000
H      -45.13230000     -37.63550000     -73.82660000
H      -47.95720000     -35.19740000     -71.87920000
H      -45.45200000     -38.00180000     -69.61360000
H      -44.30900000     -38.52770000     -71.77190000
C      -47.45330000     -36.11890000     -69.27450000
H      -47.87260000     -36.98710000     -68.79000000
H      -48.28010000     -35.42060000     -69.56560000
C      -47.13730000     -35.67020000     -74.27540000
H      -47.20860000     -36.36240000     -75.10760000
H      -48.16340000     -35.26780000     -74.00980000
S      -46.49120000     -35.19210000     -67.95960000
S      -46.06220000     -34.26880000     -74.99520000
C      -46.12770000     -33.56940000     -68.72140000
H      -46.92950000     -33.23000000     -69.29400000
H      -46.09900000     -32.89940000     -67.83720000
C      -45.15590000     -33.45990000     -73.57980000
H      -44.29310000     -32.84170000     -73.94240000
H      -44.81210000     -34.30970000     -72.96740000
C      -46.01580000     -32.47250000     -72.67000000
H      -46.76670000     -32.10360000     -73.33730000
H      -46.54970000     -33.09430000     -71.94590000
C      -44.80660000     -33.50620000     -69.54540000
H      -44.82530000     -34.11290000     -70.48600000
H      -44.03230000     -34.03580000     -68.96760000
C      -44.16200000     -32.17260000     -69.91750000
C      -43.17560000     -31.63680000     -69.14000000
C      -44.48230000     -31.26820000     -71.02100000
H      -42.79160000     -32.27220000     -68.34810000
C      -43.79230000     -30.03700000     -70.88470000
C      -45.31540000     -31.23630000     -72.13950000
C      -45.17920000     -30.09060000     -72.85670000
S      -42.62060000     -30.01620000     -69.54840000
S      -44.10320000     -28.93580000     -72.13330000
H      -45.25760000     -30.00230000     -73.98910000
