40
Properties=species:S:1:pos:R:3 #=T CELL(abcABC):=T 1.889726e+02=T 90.00000=T Traj:=T positionsangstrom=T Step:=T 0=T Bead:=T pbc="F F F"
C      -43.36270000     -31.59660000     -70.34510000
C      -43.52730000     -32.83700000     -69.65350000
C      -43.35960000     -34.00850000     -70.42180000
C      -43.00110000     -34.00630000     -71.81280000
C      -42.65980000     -32.72150000     -72.37120000
C      -42.88960000     -31.60670000     -71.65260000
H      -43.41660000     -30.64020000     -69.78040000
H      -43.43460000     -34.99620000     -69.97560000
H      -42.13160000     -32.61240000     -73.33600000
H      -42.55490000     -30.71820000     -72.07490000
C      -42.78330000     -35.29940000     -72.54770000
H      -41.78630000     -35.71340000     -72.39020000
H      -42.98300000     -35.22440000     -73.62630000
C      -43.88700000     -33.00580000     -68.20490000
H      -43.29400000     -33.86680000     -67.88030000
H      -43.58080000     -32.26250000     -67.47800000
S      -43.95830000     -36.57750000     -72.04460000
S      -45.66370000     -33.15260000     -67.75640000
C      -45.32450000     -36.44260000     -73.31600000
H      -45.03380000     -36.03780000     -74.26010000
H      -45.67470000     -37.50590000     -73.45230000
C      -46.21480000     -34.63910000     -68.76270000
H      -46.60990000     -35.37750000     -67.97940000
H      -45.41770000     -35.05350000     -69.46840000
C      -47.45650000     -34.19890000     -69.59300000
H      -47.65840000     -34.97910000     -70.27960000
H      -48.33710000     -34.17880000     -68.94830000
C      -46.48120000     -35.65340000     -72.80460000
H      -46.66270000     -35.99920000     -71.75200000
H      -47.35800000     -35.92300000     -73.42760000
C      -46.38260000     -34.10070000     -72.91100000
C      -46.06010000     -33.55130000     -74.08880000
C      -46.77820000     -33.06510000     -71.91230000
H      -45.73670000     -34.15170000     -74.86880000
C      -46.65870000     -31.82480000     -72.48520000
C      -47.35460000     -33.05840000     -70.55250000
C      -47.59070000     -31.78220000     -70.13570000
S      -46.05180000     -31.80170000     -74.09720000
S      -47.15300000     -30.55390000     -71.32810000
H      -47.77620000     -31.34890000     -69.16750000
