40
Properties=species:S:1:pos:R:3 #=T CELL(abcABC):=T 1.889726e+02=T 90.00000=T Traj:=T positionsangstrom=T Step:=T 0=T Bead:=T pbc="F F F"
C      -45.06820000     -36.98410000     -72.79440000
C      -46.28440000     -36.28330000     -72.94780000
C      -47.05050000     -36.06080000     -71.81100000
C      -46.69250000     -36.56510000     -70.59500000
C      -45.55460000     -37.37960000     -70.43770000
C      -44.66660000     -37.43940000     -71.54590000
H      -44.50580000     -37.19650000     -73.68330000
H      -47.91360000     -35.42410000     -71.95480000
H      -45.24910000     -37.65500000     -69.43650000
H      -43.65590000     -37.83010000     -71.36140000
C      -47.48220000     -36.18800000     -69.31320000
H      -47.75680000     -37.09890000     -68.72800000
H      -48.46420000     -35.66810000     -69.59140000
C      -46.81440000     -35.66160000     -74.22650000
H      -46.99650000     -36.43070000     -75.03510000
H      -47.71140000     -35.10420000     -74.12570000
S      -46.54280000     -35.14090000     -68.05650000
S      -45.57110000     -34.53500000     -74.98630000
C      -46.19030000     -33.51030000     -68.95860000
H      -46.82270000     -33.37770000     -69.86560000
H      -46.47270000     -32.83200000     -68.22330000
C      -44.98290000     -33.69630000     -73.37540000
H      -44.15750000     -33.10690000     -73.62140000
H      -44.66850000     -34.42950000     -72.73530000
C      -45.98760000     -32.81810000     -72.65050000
H      -46.87160000     -32.67960000     -73.28820000
H      -46.34420000     -33.34460000     -71.78990000
C      -44.76630000     -33.45510000     -69.45190000
H      -44.75120000     -34.22180000     -70.30480000
H      -44.09210000     -33.89740000     -68.66250000
C      -44.36420000     -32.01550000     -69.72580000
C      -43.57170000     -31.21120000     -68.84950000
C      -44.67700000     -31.29410000     -70.95030000
H      -43.07160000     -31.49070000     -67.91260000
C      -44.11020000     -30.01240000     -70.93950000
C      -45.35200000     -31.55540000     -72.22080000
C      -45.33680000     -30.43060000     -73.01550000
S      -43.14370000     -29.69050000     -69.56090000
S      -44.38570000     -29.11150000     -72.40000000
H      -45.66280000     -30.39230000     -74.07580000
