40
Properties=species:S:1:pos:R:3 #=T CELL(abcABC):=T 1.889726e+02=T 90.00000=T Traj:=T positionsangstrom=T Step:=T 0=T Bead:=T pbc="F F F"
C      -45.20700000     -37.54700000     -72.39470000
C      -46.09160000     -36.47780000     -72.81180000
C      -46.87730000     -35.89960000     -71.82340000
C      -46.89530000     -36.40530000     -70.48220000
C      -46.16390000     -37.55490000     -70.14440000
C      -45.25770000     -38.00430000     -71.10120000
H      -44.46860000     -37.94570000     -73.02730000
H      -47.42660000     -35.03000000     -72.09240000
H      -46.32910000     -37.95560000     -69.17890000
H      -44.64420000     -38.87690000     -70.94040000
C      -47.80590000     -35.63160000     -69.53910000
H      -48.65050000     -36.25290000     -69.15730000
H      -48.13910000     -34.72830000     -70.08420000
C      -45.97350000     -35.93160000     -74.20070000
H      -46.11890000     -36.78790000     -74.88260000
H      -46.88760000     -35.28520000     -74.34970000
S      -46.89520000     -34.94860000     -68.08310000
S      -44.49390000     -34.83780000     -74.77420000
C      -46.21600000     -33.32910000     -68.70310000
H      -47.00590000     -32.64080000     -68.83530000
H      -45.70400000     -32.95860000     -67.86280000
C      -44.50630000     -33.54550000     -73.43310000
H      -43.55440000     -33.04560000     -73.70780000
H      -44.38210000     -33.91030000     -72.46080000
C      -45.66970000     -32.58110000     -73.41440000
H      -45.82290000     -32.24800000     -74.44160000
H      -46.63370000     -32.99090000     -73.05770000
C      -45.26830000     -33.46930000     -69.86760000
H      -45.81400000     -33.91020000     -70.73680000
H      -44.53000000     -34.22360000     -69.57130000
C      -44.60420000     -32.11790000     -70.10020000
C      -43.86110000     -31.52920000     -69.08940000
C      -44.76350000     -31.20370000     -71.19380000
H      -43.45630000     -32.09040000     -68.28750000
C      -44.22920000     -29.93440000     -70.89930000
C      -45.35230000     -31.32750000     -72.56670000
C      -45.25370000     -30.09530000     -73.19870000
S      -43.42080000     -29.85170000     -69.36730000
S      -44.44650000     -28.87270000     -72.26750000
H      -45.46580000     -29.96360000     -74.24250000
