40
Properties=species:S:1:pos:R:3 #=T CELL(abcABC):=T 1.889726e+02=T 90.00000=T Traj:=T positionsangstrom=T Step:=T 0=T Bead:=T pbc="F F F"
C      -45.35430000     -37.18610000     -72.41560000
C      -46.18930000     -36.20140000     -72.86950000
C      -47.18750000     -35.71160000     -72.00960000
C      -47.30350000     -36.13570000     -70.70200000
C      -46.51040000     -37.25160000     -70.29610000
C      -45.57700000     -37.74330000     -71.15860000
H      -44.54140000     -37.58020000     -73.03060000
H      -47.83330000     -34.93650000     -72.45380000
H      -46.63480000     -37.62220000     -69.34600000
H      -45.11010000     -38.66190000     -70.87800000
C      -48.37660000     -35.63500000     -69.80650000
H      -48.78020000     -36.36320000     -69.15560000
H      -49.28330000     -35.23380000     -70.26990000
C      -46.08730000     -35.80430000     -74.30270000
H      -46.41940000     -36.56990000     -74.99230000
H      -46.73350000     -34.88840000     -74.41870000
S      -47.87640000     -34.39980000     -68.39400000
S      -44.32350000     -35.31930000     -74.59050000
C      -47.17840000     -32.92770000     -69.31560000
H      -47.63330000     -32.83900000     -70.29710000
H      -47.49780000     -32.00250000     -68.79610000
C      -44.00410000     -34.18030000     -73.13080000
H      -42.99770000     -33.72700000     -73.37720000
H      -43.89460000     -34.79370000     -72.25170000
C      -45.10200000     -33.07370000     -72.89400000
H      -45.58900000     -32.79100000     -73.81330000
H      -45.87500000     -33.41840000     -72.17970000
C      -45.66030000     -33.06260000     -69.49670000
H      -45.33780000     -33.85550000     -70.17350000
H      -45.34350000     -33.51280000     -68.47130000
C      -44.96050000     -31.76840000     -69.75410000
C      -44.70410000     -30.90420000     -68.72340000
C      -44.39840000     -31.36600000     -71.01230000
H      -45.03400000     -30.91510000     -67.69500000
C      -43.72420000     -30.12730000     -70.91850000
C      -44.38100000     -31.84820000     -72.39410000
C      -43.65830000     -31.01330000     -73.21450000
S      -43.82810000     -29.47930000     -69.34990000
S      -42.99980000     -29.55630000     -72.39530000
H      -43.47140000     -31.05030000     -74.30090000
