40
Properties=species:S:1:pos:R:3 #=T CELL(abcABC):=T 1.889726e+02=T 90.00000=T Traj:=T positionsangstrom=T Step:=T 0=T Bead:=T pbc="F F F"
C      -45.35580000     -37.51550000     -72.54180000
C      -46.21710000     -36.44800000     -72.87260000
C      -47.04460000     -35.82220000     -71.90540000
C      -46.93820000     -36.22870000     -70.59210000
C      -46.16820000     -37.37200000     -70.25030000
C      -45.31870000     -37.95550000     -71.16850000
H      -44.78920000     -38.04450000     -73.33200000
H      -47.76780000     -35.07210000     -72.18270000
H      -46.09820000     -37.74680000     -69.22240000
H      -44.73000000     -38.78750000     -71.00160000
C      -47.88520000     -35.73510000     -69.48730000
H      -48.37320000     -36.58870000     -69.05840000
H      -48.71330000     -35.14870000     -69.82260000
C      -46.18670000     -35.93310000     -74.24840000
H      -46.18080000     -36.62310000     -75.03520000
H      -46.90190000     -35.17170000     -74.46270000
S      -46.97560000     -34.94530000     -68.07140000
S      -44.41170000     -35.07230000     -74.50380000
C      -46.54900000     -33.30250000     -68.77840000
H      -47.52030000     -32.98960000     -69.28550000
H      -46.28920000     -32.59900000     -67.93020000
C      -44.24070000     -33.64480000     -73.27420000
H      -43.30800000     -33.13410000     -73.51800000
H      -43.99240000     -34.15290000     -72.29800000
C      -45.38720000     -32.67090000     -73.26780000
H      -45.77900000     -32.50330000     -74.30600000
H      -46.16840000     -33.22170000     -72.71480000
C      -45.38230000     -33.35630000     -69.83720000
H      -45.79340000     -33.78840000     -70.73730000
H      -44.58710000     -34.01510000     -69.42850000
C      -44.65340000     -32.00460000     -70.05190000
C      -43.99380000     -31.38760000     -69.02410000
C      -44.62160000     -31.22940000     -71.23760000
H      -43.91360000     -31.78440000     -68.03420000
C      -44.09120000     -29.99630000     -71.00330000
C      -45.11870000     -31.35290000     -72.59620000
C      -44.98560000     -30.19020000     -73.31200000
S      -43.36050000     -29.79690000     -69.41800000
S      -44.42160000     -28.84470000     -72.32190000
H      -45.20970000     -29.98390000     -74.39570000
