40
Properties=species:S:1:pos:R:3 #=T CELL(abcABC):=T 1.889726e+02=T 90.00000=T Traj:=T positionsangstrom=T Step:=T 0=T Bead:=T pbc="F F F"
C      -45.38090000     -37.38580000     -72.50470000
C      -46.31470000     -36.35310000     -72.82010000
C      -47.20620000     -35.86780000     -71.86040000
C      -47.08580000     -36.36020000     -70.56470000
C      -46.23840000     -37.39800000     -70.25960000
C      -45.45410000     -38.02770000     -71.22310000
H      -44.66250000     -37.64580000     -73.33120000
H      -47.77940000     -34.92590000     -72.11870000
H      -46.28170000     -37.82160000     -69.24460000
H      -44.82720000     -38.84220000     -70.87400000
C      -48.00840000     -35.78400000     -69.52670000
H      -48.52210000     -36.57070000     -68.96080000
H      -48.75010000     -35.07820000     -69.98910000
C      -46.19210000     -35.60910000     -74.14300000
H      -46.42100000     -36.14580000     -75.11550000
H      -46.80770000     -34.64690000     -74.11490000
S      -47.09960000     -34.84290000     -68.24080000
S      -44.34850000     -35.11740000     -74.47700000
C      -46.50890000     -33.24810000     -68.89150000
H      -47.23880000     -32.77030000     -69.47760000
H      -46.36390000     -32.57980000     -68.03260000
C      -44.29720000     -33.81890000     -73.10550000
H      -43.42610000     -33.21900000     -73.05880000
H      -44.46770000     -34.35690000     -72.16240000
C      -45.43170000     -32.75330000     -73.20760000
H      -45.64590000     -32.62130000     -74.24100000
H      -46.36150000     -33.00530000     -72.71110000
C      -45.21680000     -33.37380000     -69.77640000
H      -45.39860000     -33.85560000     -70.66840000
H      -44.46150000     -34.01330000     -69.27520000
C      -44.58360000     -32.00650000     -69.93760000
C      -44.01580000     -31.26890000     -68.92370000
C      -44.61000000     -31.24280000     -71.18440000
H      -44.05380000     -31.55800000     -67.88170000
C      -44.04990000     -29.99170000     -71.01080000
C      -45.02670000     -31.45960000     -72.58360000
C      -44.76660000     -30.37120000     -73.37110000
S      -43.53460000     -29.64410000     -69.38860000
S      -44.08220000     -29.03180000     -72.44890000
H      -44.99000000     -30.35340000     -74.47440000
