40
Properties=species:S:1:pos:R:3 #=T CELL(abcABC):=T 1.889726e+02=T 90.00000=T Traj:=T positionsangstrom=T Step:=T 0=T Bead:=T pbc="F F F"
C      -45.49690000     -36.97090000     -71.79150000
C      -46.26690000     -36.15680000     -72.59660000
C      -47.39190000     -35.60940000     -71.98440000
C      -47.74440000     -35.85950000     -70.66800000
C      -46.95860000     -36.81720000     -69.93860000
C      -45.83470000     -37.30830000     -70.49400000
H      -44.56510000     -37.32740000     -72.25330000
H      -48.00800000     -34.78360000     -72.49160000
H      -47.16420000     -37.05140000     -68.87340000
H      -45.26830000     -38.02050000     -69.90340000
C      -48.95080000     -35.08940000     -70.08680000
H      -49.55110000     -35.75830000     -69.52990000
H      -49.57690000     -34.70090000     -70.89770000
C      -45.92010000     -35.89650000     -74.05690000
H      -46.19170000     -36.78440000     -74.66470000
H      -46.57210000     -35.14910000     -74.48100000
S      -48.55260000     -33.78630000     -68.92770000
S      -44.09100000     -35.50540000     -74.28210000
C      -47.45630000     -32.60650000     -69.85950000
H      -47.98540000     -32.19290000     -70.72020000
H      -47.27410000     -31.73330000     -69.19250000
C      -43.76680000     -34.18070000     -73.02240000
H      -42.72310000     -33.79720000     -73.09380000
H      -43.89450000     -34.57060000     -72.02750000
C      -44.75880000     -32.93870000     -73.28250000
H      -44.85370000     -32.76770000     -74.35060000
H      -45.69490000     -33.24230000     -72.82390000
C      -45.95070000     -33.17730000     -70.09360000
H      -46.03940000     -33.86480000     -70.94030000
H      -45.91740000     -33.84820000     -69.20040000
C      -44.95870000     -32.08970000     -70.09800000
C      -44.49340000     -31.56430000     -68.91930000
C      -44.26760000     -31.50570000     -71.23730000
H      -44.78610000     -31.83810000     -67.94830000
C      -43.45100000     -30.46200000     -70.83720000
C      -44.11120000     -31.74890000     -72.64420000
C      -43.33810000     -30.86180000     -73.27290000
S      -43.38960000     -30.28140000     -69.10900000
S      -42.67040000     -29.67200000     -72.17800000
H      -43.20520000     -30.80440000     -74.32580000
