40
Properties=species:S:1:pos:R:3 #=T CELL(abcABC):=T 1.889726e+02=T 90.00000=T Traj:=T positionsangstrom=T Step:=T 0=T Bead:=T pbc="F F F"
C      -44.22860000     -35.05310000     -72.46340000
C      -45.12570000     -34.64240000     -73.46470000
C      -46.48380000     -34.82440000     -73.16870000
C      -46.97100000     -35.36680000     -71.95630000
C      -46.01960000     -35.80760000     -71.06840000
C      -44.63750000     -35.60420000     -71.31060000
H      -43.14740000     -34.76180000     -72.58080000
H      -47.23150000     -34.34830000     -73.81390000
H      -46.32710000     -36.37130000     -70.25840000
H      -43.85090000     -35.87920000     -70.59520000
C      -48.44830000     -35.51200000     -71.65890000
H      -48.76510000     -36.56200000     -71.70140000
H      -48.97780000     -35.04950000     -72.44950000
C      -44.88300000     -33.94800000     -74.74750000
H      -44.69430000     -34.70830000     -75.55610000
H      -45.77940000     -33.43760000     -74.90720000
S      -48.77040000     -34.72290000     -69.96200000
S      -43.31340000     -32.90240000     -74.78580000
C      -48.75930000     -32.93210000     -70.51500000
H      -49.52900000     -32.79820000     -71.32400000
H      -49.08260000     -32.41050000     -69.54690000
C      -43.86910000     -31.24190000     -74.02070000
H      -44.49740000     -30.67580000     -74.80430000
H      -43.06680000     -30.56160000     -73.85980000
C      -44.78990000     -31.26760000     -72.76460000
H      -45.28470000     -30.29280000     -72.55550000
H      -45.70160000     -31.98170000     -73.00260000
C      -47.43640000     -32.27840000     -70.94470000
H      -47.64790000     -31.30290000     -71.19670000
H      -47.10230000     -32.85080000     -71.85400000
C      -46.23090000     -32.31880000     -69.97500000
C      -46.36070000     -32.67080000     -68.64940000
C      -44.80280000     -32.15340000     -70.36750000
H      -47.15070000     -32.78500000     -67.92620000
C      -43.94410000     -32.57940000     -69.31170000
C      -44.04860000     -31.76110000     -71.56810000
C      -42.69960000     -31.82060000     -71.40610000
S      -44.84770000     -33.12790000     -67.90510000
S      -42.27200000     -32.51060000     -69.77830000
H      -41.95130000     -31.58330000     -72.14500000
