40
Properties=species:S:1:pos:R:3 #=T CELL(abcABC):=T 1.889726e+02=T 90.00000=T Traj:=T positionsangstrom=T Step:=T 0=T Bead:=T pbc="F F F"
C      -45.57490000     -37.17520000     -71.57940000
C      -46.18220000     -36.33030000     -72.48230000
C      -47.30310000     -35.57280000     -72.05350000
C      -47.77800000     -35.70740000     -70.75170000
C      -47.09840000     -36.45690000     -69.83160000
C      -46.00180000     -37.22250000     -70.26190000
H      -44.80960000     -37.90660000     -71.86240000
H      -47.78760000     -34.93420000     -72.74290000
H      -47.47580000     -36.50520000     -68.85620000
H      -45.30950000     -37.79870000     -69.64210000
C      -49.03950000     -35.01130000     -70.33900000
H      -49.62130000     -35.71730000     -69.78620000
H      -49.60390000     -34.71050000     -71.19940000
C      -45.84890000     -36.15930000     -73.96860000
H      -46.02760000     -37.04720000     -74.54960000
H      -46.61210000     -35.42170000     -74.33870000
S      -48.62640000     -33.55150000     -69.19340000
S      -44.11410000     -35.65810000     -74.34930000
C      -47.33680000     -32.62960000     -70.07220000
H      -47.57350000     -32.59960000     -71.15040000
H      -47.33660000     -31.56310000     -69.80550000
C      -43.73070000     -34.19650000     -73.27440000
H      -42.74360000     -33.77540000     -73.60350000
H      -43.55350000     -34.60900000     -72.25050000
C      -44.76280000     -33.06690000     -73.11370000
H      -45.12070000     -32.70860000     -74.08150000
H      -45.55860000     -33.44450000     -72.54160000
C      -45.84820000     -33.18290000     -69.91260000
H      -45.76040000     -33.94030000     -70.64210000
H      -45.89460000     -33.65580000     -68.98140000
C      -44.81860000     -32.11820000     -69.91610000
C      -44.46290000     -31.47300000     -68.78520000
C      -44.14390000     -31.58850000     -71.05250000
H      -44.72220000     -31.83570000     -67.76830000
C      -43.42240000     -30.44650000     -70.78990000
C      -44.09120000     -31.94830000     -72.46510000
C      -43.38240000     -31.06320000     -73.18240000
S      -43.38000000     -30.09420000     -69.10630000
S      -42.71290000     -29.72150000     -72.23250000
H      -43.09190000     -31.02790000     -74.21090000
