40
Properties=species:S:1:pos:R:3 #=T CELL(abcABC):=T 1.889726e+02=T 90.00000=T Traj:=T positionsangstrom=T Step:=T 0=T Bead:=T pbc="F F F"
C      -45.44520000     -37.05000000     -71.49390000
C      -46.18840000     -36.35780000     -72.50030000
C      -47.42510000     -35.74640000     -72.10650000
C      -47.91370000     -35.80620000     -70.77490000
C      -47.13600000     -36.45600000     -69.81670000
C      -45.93530000     -37.12030000     -70.19640000
H      -44.46680000     -37.55490000     -71.66950000
H      -47.90330000     -35.18660000     -72.82340000
H      -47.53960000     -36.52510000     -68.80840000
H      -45.35300000     -37.62720000     -69.41580000
C      -49.06260000     -34.88790000     -70.35370000
H      -49.81130000     -35.44530000     -69.75060000
H      -49.68290000     -34.53620000     -71.21690000
C      -45.82040000     -36.48700000     -73.97950000
H      -45.71710000     -37.56700000     -74.13220000
H      -46.60130000     -36.12780000     -74.66720000
S      -48.53120000     -33.44400000     -69.33230000
S      -44.21940000     -35.69470000     -74.42080000
C      -47.04350000     -32.76090000     -70.27240000
H      -47.26480000     -32.96360000     -71.26140000
H      -47.24530000     -31.65810000     -70.04410000
C      -43.76050000     -34.51150000     -73.04070000
H      -42.78260000     -34.23030000     -73.38580000
H      -43.75550000     -34.94970000     -72.06190000
C      -44.65090000     -33.25460000     -73.06330000
H      -44.82390000     -32.99770000     -74.07020000
H      -45.70230000     -33.49680000     -72.64430000
C      -45.64780000     -33.26020000     -69.65750000
H      -45.22650000     -34.19580000     -70.18230000
H      -45.65600000     -33.59950000     -68.56800000
C      -44.76880000     -32.04880000     -69.81090000
C      -44.45980000     -31.24380000     -68.73140000
C      -44.18290000     -31.58350000     -71.02320000
H      -44.84500000     -31.30360000     -67.67690000
C      -43.44580000     -30.38280000     -70.81400000
C      -44.12280000     -31.95910000     -72.41980000
C      -43.51640000     -30.99030000     -73.17370000
S      -43.47340000     -29.87520000     -69.19490000
S      -42.75070000     -29.74640000     -72.20320000
H      -43.30970000     -31.01780000     -74.24260000
