40
Properties=species:S:1:pos:R:3 #=T CELL(abcABC):=T 1.889726e+02=T 90.00000=T Traj:=T positionsangstrom=T Step:=T 0=T Bead:=T pbc="F F F"
C      -45.53720000     -37.43020000     -72.00650000
C      -46.25740000     -36.48060000     -72.65720000
C      -47.26440000     -35.85280000     -71.91270000
C      -47.56800000     -36.10780000     -70.59060000
C      -46.64550000     -36.94100000     -69.95520000
C      -45.68950000     -37.66070000     -70.62200000
H      -44.72050000     -38.03240000     -72.50110000
H      -48.01790000     -35.20930000     -72.41910000
H      -46.61090000     -37.05840000     -68.83600000
H      -45.05130000     -38.31190000     -70.13970000
C      -48.71460000     -35.39280000     -69.93060000
H      -49.33220000     -36.04200000     -69.30290000
H      -49.36710000     -34.87300000     -70.60340000
C      -46.08200000     -36.10460000     -74.14470000
H      -46.18930000     -36.88270000     -74.78790000
H      -46.83650000     -35.39320000     -74.46020000
S      -48.10380000     -34.25890000     -68.63100000
S      -44.51860000     -35.24620000     -74.64450000
C      -47.17260000     -32.84600000     -69.55800000
H      -47.73440000     -32.45070000     -70.36080000
H      -47.14800000     -32.03210000     -68.79740000
C      -44.12750000     -34.13040000     -73.22240000
H      -43.07460000     -33.98320000     -73.19580000
H      -44.40750000     -34.66710000     -72.31610000
C      -44.77900000     -32.79320000     -73.33710000
H      -44.91620000     -32.51850000     -74.35470000
H      -45.81610000     -32.85340000     -72.85970000
C      -45.72260000     -33.23870000     -70.03400000
H      -45.85290000     -33.78770000     -70.96690000
H      -45.26380000     -33.90650000     -69.30510000
C      -44.92790000     -31.93950000     -70.04530000
C      -44.62640000     -31.27340000     -68.90620000
C      -44.21080000     -31.35550000     -71.16520000
H      -44.99140000     -31.48320000     -67.96120000
C      -43.57190000     -30.19260000     -70.85390000
C      -44.00460000     -31.70110000     -72.54440000
C      -43.22270000     -30.80250000     -73.19450000
S      -43.79370000     -29.70070000     -69.16230000
S      -42.68570000     -29.45030000     -72.14430000
H      -43.10030000     -30.80680000     -74.25770000
