40
Properties=species:S:1:pos:R:3 #=T CELL(abcABC):=T 1.889726e+02=T 90.00000=T Traj:=T positionsangstrom=T Step:=T 0=T Bead:=T pbc="F F F"
C      -44.48220000     -29.68860000     -70.58530000
C      -44.84540000     -30.51250000     -69.51880000
C      -46.18000000     -30.99180000     -69.47660000
C      -47.15160000     -30.65290000     -70.41230000
C      -46.75430000     -29.79620000     -71.47320000
C      -45.42090000     -29.45090000     -71.58920000
H      -43.44730000     -29.35940000     -70.69170000
H      -46.47950000     -31.47890000     -68.53140000
H      -47.50350000     -29.62250000     -72.32890000
H      -45.13110000     -28.81210000     -72.45190000
C      -48.62320000     -31.04030000     -70.34740000
H      -49.14340000     -30.57050000     -71.20210000
H      -48.95160000     -30.54170000     -69.46090000
C      -43.99840000     -30.92440000     -68.35110000
H      -43.06540000     -30.37840000     -68.26860000
H      -44.53940000     -30.52210000     -67.48230000
S      -48.91250000     -32.84750000     -70.23970000
S      -43.74040000     -32.70510000     -68.03400000
C      -48.03760000     -33.52470000     -71.74790000
H      -48.46590000     -34.41690000     -72.21080000
H      -47.85670000     -32.65720000     -72.44420000
C      -43.53090000     -33.33510000     -69.80470000
H      -42.44240000     -33.11600000     -70.07850000
H      -44.24510000     -32.67460000     -70.36910000
C      -43.83520000     -34.88120000     -69.91120000
H      -43.25370000     -35.46430000     -69.24790000
H      -44.85380000     -35.12890000     -69.61290000
C      -46.61480000     -33.95670000     -71.48810000
H      -46.69720000     -34.70280000     -70.71140000
H      -46.02290000     -33.04380000     -71.21840000
C      -45.94420000     -34.72220000     -72.59320000
C      -46.37010000     -34.78970000     -73.87940000
C      -44.64370000     -35.30400000     -72.44920000
H      -47.32960000     -34.28570000     -74.17130000
C      -44.15260000     -35.84300000     -73.64950000
C      -43.67060000     -35.39670000     -71.35990000
C      -42.56620000     -36.13870000     -71.71540000
S      -45.32610000     -35.66680000     -75.01700000
S      -42.58790000     -36.58330000     -73.41050000
H      -41.74270000     -36.26660000     -71.10570000
