40
Properties=species:S:1:pos:R:3 #=T CELL(abcABC):=T 1.889726e+02=T 90.00000=T Traj:=T positionsangstrom=T Step:=T 0=T Bead:=T pbc="F F F"
C      -44.60510000     -35.39860000     -72.58800000
C      -45.75390000     -34.91680000     -73.26970000
C      -47.03460000     -35.00440000     -72.59770000
C      -47.02980000     -35.47370000     -71.27730000
C      -45.83870000     -35.69160000     -70.55510000
C      -44.65430000     -35.77880000     -71.26170000
H      -43.64110000     -35.39800000     -73.09980000
H      -47.99910000     -34.84120000     -73.18330000
H      -45.87140000     -35.89900000     -69.51310000
H      -43.76850000     -36.10210000     -70.68180000
C      -48.34250000     -35.54610000     -70.47770000
H      -48.53850000     -36.56360000     -70.23870000
H      -49.27780000     -35.18860000     -70.95030000
C      -45.69080000     -34.35730000     -74.68360000
H      -45.81980000     -35.18130000     -75.49290000
H      -46.57880000     -33.73040000     -74.89460000
S      -48.29660000     -34.50140000     -68.97530000
S      -44.31800000     -33.21830000     -75.03970000
C      -48.37040000     -32.72030000     -69.39100000
H      -49.34910000     -32.44330000     -69.79690000
H      -48.26530000     -32.19250000     -68.42970000
C      -44.98060000     -31.42250000     -74.53890000
H      -45.93350000     -31.49680000     -75.13080000
H      -44.32220000     -30.66310000     -74.86430000
C      -45.42610000     -31.32830000     -73.11400000
H      -45.69340000     -30.20340000     -73.17010000
H      -46.28870000     -31.88080000     -72.94960000
C      -47.25880000     -32.37010000     -70.35580000
H      -47.43700000     -31.33000000     -70.62110000
H      -47.45180000     -32.99730000     -71.16760000
C      -45.83590000     -32.49130000     -69.88150000
C      -45.46020000     -32.94510000     -68.62070000
C      -44.60670000     -32.12770000     -70.65450000
H      -45.95030000     -33.32760000     -67.67430000
C      -43.44290000     -32.32600000     -69.93900000
C      -44.37190000     -31.67000000     -72.04860000
C      -43.02610000     -31.65910000     -72.31370000
S      -43.69650000     -32.92200000     -68.34460000
S      -41.98970000     -32.00490000     -70.89960000
H      -42.60320000     -31.33590000     -73.24230000
