40
Properties=species:S:1:pos:R:3 #=T CELL(abcABC):=T 1.889726e+02=T 90.00000=T Traj:=T positionsangstrom=T Step:=T 0=T Bead:=T pbc="F F F"
C      -45.43840000     -37.28970000     -71.38370000
C      -46.09930000     -36.54840000     -72.36310000
C      -47.14050000     -35.71170000     -71.99690000
C      -47.65180000     -35.67560000     -70.67500000
C      -46.94750000     -36.41630000     -69.66860000
C      -45.85960000     -37.21430000     -70.01450000
H      -44.64480000     -37.95710000     -71.78080000
H      -47.74590000     -35.19910000     -72.81810000
H      -47.09550000     -36.17910000     -68.60050000
H      -45.39760000     -37.89770000     -69.31110000
C      -48.95820000     -35.02240000     -70.34330000
H      -49.59510000     -35.76020000     -69.79660000
H      -49.41330000     -34.64410000     -71.30070000
C      -45.52940000     -36.56840000     -73.82530000
H      -45.47380000     -37.61820000     -74.20800000
H      -46.27130000     -36.09450000     -74.56400000
S      -48.77490000     -33.60640000     -69.20160000
S      -43.85670000     -35.81220000     -73.98700000
C      -47.35840000     -32.61360000     -70.05600000
H      -47.60260000     -32.57200000     -71.06960000
H      -47.49920000     -31.58760000     -69.72780000
C      -43.99380000     -34.41920000     -72.81380000
H      -42.94540000     -34.09040000     -72.71820000
H      -44.24620000     -34.88030000     -71.84160000
C      -44.93030000     -33.21290000     -73.18090000
H      -44.96560000     -32.98780000     -74.28110000
H      -45.91210000     -33.30200000     -72.93640000
C      -45.87200000     -33.08040000     -69.80120000
H      -45.50410000     -33.95490000     -70.46280000
H      -45.71660000     -33.38160000     -68.72650000
C      -44.94210000     -31.87740000     -69.97780000
C      -44.61920000     -31.02420000     -68.97370000
C      -44.24110000     -31.53570000     -71.19540000
H      -44.96380000     -30.94820000     -67.97410000
C      -43.44670000     -30.35640000     -71.04770000
C      -44.22930000     -31.93430000     -72.58630000
C      -43.52130000     -31.07510000     -73.39430000
S      -43.45610000     -29.72050000     -69.44930000
S      -42.76960000     -29.76920000     -72.48870000
H      -43.41180000     -31.16510000     -74.46900000
