40
Properties=species:S:1:pos:R:3 #=T CELL(abcABC):=T 1.889726e+02=T 90.00000=T Traj:=T positionsangstrom=T Step:=T 0=T Bead:=T pbc="F F F"
C      -44.08410000     -35.70770000     -74.10020000
C      -43.25410000     -34.81280000     -73.39080000
C      -43.36170000     -33.39190000     -73.55890000
C      -44.32040000     -32.97480000     -74.46420000
C      -45.15980000     -33.84460000     -75.19850000
C      -45.07150000     -35.24210000     -74.98740000
H      -43.98920000     -36.79960000     -74.04120000
H      -42.70590000     -32.76750000     -72.99340000
H      -46.02450000     -33.38120000     -75.77420000
H      -45.76150000     -35.93380000     -75.37510000
C      -44.42760000     -31.50490000     -74.75630000
H      -44.44150000     -31.38750000     -75.81940000
H      -43.60520000     -30.92420000     -74.25080000
C      -42.22870000     -35.47310000     -72.50240000
H      -42.61630000     -36.45250000     -72.20520000
H      -41.29560000     -35.62850000     -73.05110000
S      -45.92830000     -30.58990000     -74.19410000
S      -41.56340000     -34.54410000     -71.00840000
C      -46.08720000     -30.73310000     -72.30990000
H      -45.27670000     -30.31670000     -71.65780000
H      -46.93050000     -30.06640000     -72.12510000
C      -42.91160000     -34.80130000     -69.73090000
H      -42.58430000     -34.25830000     -68.89290000
H      -42.93090000     -35.82480000     -69.50570000
C      -44.25690000     -34.21140000     -70.27420000
H      -44.07550000     -33.12890000     -70.55700000
H      -44.56150000     -34.74930000     -71.12890000
C      -46.38810000     -32.19300000     -71.95610000
H      -45.46250000     -32.80040000     -72.01020000
H      -47.13780000     -32.63890000     -72.60320000
C      -46.96770000     -32.32110000     -70.57240000
C      -48.12150000     -31.71810000     -70.12390000
C      -46.51690000     -33.36520000     -69.52520000
H      -48.68140000     -30.95460000     -70.64080000
C      -47.37490000     -33.36880000     -68.47990000
C      -45.38460000     -34.24310000     -69.27570000
C      -45.50840000     -34.93500000     -68.10010000
S      -48.72490000     -32.30830000     -68.55120000
S      -46.94890000     -34.50990000     -67.18910000
H      -44.72200000     -35.61830000     -67.78340000
