40
Properties=species:S:1:pos:R:3 #=T CELL(abcABC):=T 1.889726e+02=T 90.00000=T Traj:=T positionsangstrom=T Step:=T 0=T Bead:=T pbc="F F F"
C      -46.13620000     -37.31410000     -71.53390000
C      -46.46570000     -36.38130000     -72.58040000
C      -47.44420000     -35.41470000     -72.39430000
C      -48.06950000     -35.32210000     -71.12210000
C      -47.71960000     -36.16740000     -70.08970000
C      -46.78330000     -37.18580000     -70.34740000
H      -45.55050000     -38.18140000     -71.78430000
H      -47.75900000     -34.70510000     -73.18250000
H      -48.12640000     -36.11570000     -69.09480000
H      -46.49910000     -37.87890000     -69.52740000
C      -49.09920000     -34.21240000     -71.03900000
H      -50.11250000     -34.70790000     -70.95630000
H      -49.27040000     -33.66290000     -71.97610000
C      -45.57260000     -36.46110000     -73.79250000
H      -45.68700000     -37.39890000     -74.19620000
H      -45.85330000     -35.61590000     -74.47440000
S      -48.88600000     -33.04750000     -69.60700000
S      -43.78180000     -36.37350000     -73.33120000
C      -47.35000000     -32.08540000     -70.09540000
H      -47.41480000     -31.60720000     -71.08810000
H      -47.36660000     -31.20310000     -69.46460000
C      -43.62000000     -34.87490000     -72.28470000
H      -42.60880000     -34.82090000     -71.96550000
H      -44.29400000     -35.01410000     -71.43270000
C      -44.13370000     -33.62500000     -73.01090000
H      -43.73650000     -33.53690000     -74.01670000
H      -45.23860000     -33.61610000     -73.12560000
C      -45.96740000     -32.86910000     -70.07160000
H      -45.85040000     -33.53000000     -70.93520000
H      -45.96100000     -33.55990000     -69.20700000
C      -44.87740000     -31.90110000     -69.96140000
C      -44.73520000     -30.99780000     -68.91350000
C      -44.00000000     -31.67320000     -71.08550000
H      -45.32440000     -31.04600000     -67.98860000
C      -43.22740000     -30.52230000     -70.85220000
C      -43.60690000     -32.33690000     -72.34900000
C      -42.78620000     -31.54900000     -73.09500000
S      -43.53340000     -29.74440000     -69.35200000
S      -42.32760000     -30.06500000     -72.28010000
H      -42.48790000     -31.90420000     -74.13150000
