40
Properties=species:S:1:pos:R:3 #=T CELL(abcABC):=T 1.889726e+02=T 90.00000=T Traj:=T positionsangstrom=T Step:=T 0=T Bead:=T pbc="F F F"
C      -44.79790000     -35.26000000     -73.19100000
C      -46.13080000     -34.92940000     -73.42600000
C      -47.01060000     -35.17020000     -72.35760000
C      -46.61850000     -35.65960000     -71.11960000
C      -45.25950000     -35.83890000     -70.85920000
C      -44.33710000     -35.65920000     -71.89960000
H      -44.14470000     -34.94220000     -73.99110000
H      -48.07380000     -34.86320000     -72.50360000
H      -44.88110000     -36.05040000     -69.89690000
H      -43.29770000     -35.43630000     -71.66610000
C      -47.65620000     -35.92840000     -70.03550000
H      -47.94860000     -36.97080000     -69.83600000
H      -48.59870000     -35.51330000     -70.39900000
C      -46.58860000     -34.36570000     -74.73700000
H      -46.48520000     -35.01330000     -75.59310000
H      -47.67750000     -34.07760000     -74.66490000
S      -47.25960000     -35.19080000     -68.49510000
S      -45.67230000     -32.80000000     -75.29810000
C      -47.69990000     -33.41640000     -68.60860000
H      -48.73690000     -33.34070000     -68.50530000
H      -47.32270000     -33.02820000     -67.71140000
C      -46.12710000     -31.37600000     -74.27420000
H      -47.22960000     -31.05300000     -74.51470000
H      -45.44200000     -30.58930000     -74.52110000
C      -46.11820000     -31.62620000     -72.73340000
H      -46.79800000     -30.93440000     -72.18050000
H      -46.60690000     -32.58550000     -72.51430000
C      -47.03710000     -32.72360000     -69.77590000
H      -47.62360000     -31.84550000     -69.99130000
H      -47.17810000     -33.42270000     -70.61500000
C      -45.56710000     -32.50610000     -69.63580000
C      -44.89820000     -32.79600000     -68.48570000
C      -44.60030000     -32.05030000     -70.63560000
H      -45.20700000     -33.20910000     -67.55710000
C      -43.26290000     -31.99670000     -70.19510000
C      -44.74290000     -31.68590000     -72.07370000
C      -43.53880000     -31.46900000     -72.62030000
S      -43.04730000     -32.43540000     -68.52000000
S      -42.16730000     -31.65900000     -71.43660000
H      -43.31420000     -31.10650000     -73.60760000
