40
Properties=species:S:1:pos:R:3 #=T CELL(abcABC):=T 1.889726e+02=T 90.00000=T Traj:=T positionsangstrom=T Step:=T 0=T Bead:=T pbc="F F F"
C      -44.61170000     -35.28000000     -73.13240000
C      -45.87220000     -34.76700000     -73.45330000
C      -46.96620000     -34.89670000     -72.57020000
C      -46.74800000     -35.40940000     -71.26990000
C      -45.48240000     -35.85040000     -70.93820000
C      -44.45780000     -35.68440000     -71.82250000
H      -43.79670000     -35.03340000     -73.76080000
H      -47.84660000     -34.33650000     -72.88640000
H      -45.29060000     -36.23150000     -69.97260000
H      -43.54230000     -36.11520000     -71.46620000
C      -47.84500000     -35.54460000     -70.28510000
H      -48.22010000     -36.54860000     -70.22120000
H      -48.72810000     -34.93410000     -70.60510000
C      -46.08110000     -34.28700000     -74.86550000
H      -45.71220000     -34.99870000     -75.64490000
H      -47.07080000     -33.92260000     -75.07360000
S      -47.49140000     -34.97370000     -68.59820000
S      -44.97500000     -32.80690000     -75.25610000
C      -47.94290000     -33.12780000     -68.64600000
H      -48.98980000     -33.09050000     -68.94780000
H      -47.90260000     -32.86400000     -67.58340000
C      -45.74450000     -31.37260000     -74.29480000
H      -46.71760000     -31.27490000     -74.77290000
H      -45.10710000     -30.41600000     -74.45950000
C      -45.93940000     -31.62160000     -72.81710000
H      -46.55990000     -30.79030000     -72.43600000
H      -46.72140000     -32.35790000     -72.69440000
C      -47.23760000     -32.29580000     -69.70250000
H      -47.57450000     -31.25680000     -69.61100000
H      -47.61250000     -32.66870000     -70.67780000
C      -45.74890000     -32.34560000     -69.52360000
C      -45.17650000     -32.58520000     -68.29550000
C      -44.76200000     -32.20390000     -70.57530000
H      -45.65840000     -32.98050000     -67.42830000
C      -43.45450000     -32.44190000     -70.15780000
C      -44.73990000     -31.80730000     -71.98250000
C      -43.48320000     -31.68880000     -72.51350000
S      -43.40950000     -32.86720000     -68.48180000
S      -42.16270000     -31.99490000     -71.29830000
H      -43.34880000     -31.28760000     -73.53480000
