40
Properties=species:S:1:pos:R:3 #=T CELL(abcABC):=T 1.889726e+02=T 90.00000=T Traj:=T positionsangstrom=T Step:=T 0=T Bead:=T pbc="F F F"
C      -44.82910000     -35.19890000     -73.20360000
C      -46.21260000     -34.88980000     -73.39670000
C      -47.05750000     -35.21480000     -72.32920000
C      -46.58680000     -35.59840000     -71.06130000
C      -45.24060000     -35.93970000     -70.94130000
C      -44.34710000     -35.75720000     -71.97770000
H      -44.18270000     -35.14120000     -74.10440000
H      -48.11120000     -35.01480000     -72.46860000
H      -44.93960000     -36.46270000     -70.03940000
H      -43.30270000     -36.18410000     -71.90120000
C      -47.60420000     -35.91730000     -70.00150000
H      -47.68700000     -36.98660000     -69.73310000
H      -48.62240000     -35.53150000     -70.16600000
C      -46.58850000     -34.25180000     -74.68560000
H      -46.57140000     -35.01460000     -75.50740000
H      -47.60060000     -33.87740000     -74.68800000
S      -47.05050000     -35.12770000     -68.29440000
S      -45.50610000     -32.83110000     -75.19880000
C      -47.71920000     -33.43930000     -68.57120000
H      -48.82010000     -33.48510000     -68.86100000
H      -47.72750000     -32.79110000     -67.64790000
C      -46.26930000     -31.43300000     -74.28810000
H      -47.26000000     -31.32150000     -74.66150000
H      -45.58880000     -30.57360000     -74.58060000
C      -46.23880000     -31.53190000     -72.71750000
H      -46.75920000     -30.65990000     -72.26080000
H      -46.87310000     -32.39050000     -72.48530000
C      -47.13510000     -32.60150000     -69.63760000
H      -47.61170000     -31.58880000     -69.71980000
H      -47.24150000     -32.95360000     -70.71050000
C      -45.56520000     -32.48040000     -69.55540000
C      -44.77370000     -32.71350000     -68.44780000
C      -44.68520000     -32.11820000     -70.69800000
H      -45.22720000     -33.02990000     -67.51500000
C      -43.28660000     -32.11050000     -70.34540000
C      -44.86140000     -31.69570000     -72.06190000
C      -43.69320000     -31.46870000     -72.73170000
S      -43.02620000     -32.60880000     -68.59270000
S      -42.26610000     -31.55000000     -71.65470000
H      -43.53530000     -31.09740000     -73.66200000
