40
Properties=species:S:1:pos:R:3 #=T CELL(abcABC):=T 1.889726e+02=T 90.00000=T Traj:=T positionsangstrom=T Step:=T 0=T Bead:=T pbc="F F F"
C      -44.87760000     -35.22530000     -72.93260000
C      -46.21550000     -34.91440000     -73.17940000
C      -47.15540000     -35.04420000     -72.16110000
C      -46.77050000     -35.42240000     -70.87910000
C      -45.38460000     -35.68370000     -70.60420000
C      -44.49650000     -35.63450000     -71.65930000
H      -44.20750000     -35.29910000     -73.79080000
H      -48.24770000     -35.08510000     -72.41180000
H      -45.08140000     -36.03170000     -69.59630000
H      -43.48950000     -35.89470000     -71.41130000
C      -47.74520000     -35.48250000     -69.71550000
H      -48.03870000     -36.52980000     -69.65750000
H      -48.67930000     -35.00200000     -70.10360000
C      -46.66760000     -34.27320000     -74.52120000
H      -46.59580000     -35.00550000     -75.30170000
H      -47.69770000     -34.11770000     -74.50090000
S      -47.13750000     -35.01090000     -68.06200000
S      -45.77860000     -32.72440000     -75.00520000
C      -47.26930000     -33.17090000     -68.16730000
H      -48.36000000     -32.86660000     -68.05730000
H      -46.75450000     -32.72450000     -67.26490000
C      -46.70740000     -31.41240000     -74.04070000
H      -47.78290000     -31.43190000     -74.42540000
H      -46.31010000     -30.41920000     -74.24550000
C      -46.49130000     -31.57020000     -72.52710000
H      -47.07030000     -30.87800000     -72.02860000
H      -47.01240000     -32.52340000     -72.33510000
C      -46.70250000     -32.57550000     -69.45710000
H      -46.96570000     -31.46880000     -69.49530000
H      -47.21950000     -33.00020000     -70.37530000
C      -45.15280000     -32.69560000     -69.60540000
C      -44.23490000     -33.08310000     -68.67610000
C      -44.52660000     -32.18990000     -70.79660000
H      -44.48960000     -33.48300000     -67.77110000
C      -43.14770000     -32.35790000     -70.79150000
C      -45.02450000     -31.66790000     -72.09030000
C      -43.95470000     -31.25210000     -72.86000000
S      -42.61240000     -33.10160000     -69.35800000
S      -42.36950000     -31.59660000     -72.19140000
H      -44.12130000     -30.69190000     -73.75040000
