40
Properties=species:S:1:pos:R:3 #=T CELL(abcABC):=T 1.889726e+02=T 90.00000=T Traj:=T positionsangstrom=T Step:=T 0=T Bead:=T pbc="F F F"
C      -48.52870000     -32.88030000     -72.53020000
C      -48.19010000     -34.19960000     -72.17130000
C      -48.02900000     -34.52900000     -70.79940000
C      -48.28320000     -33.52900000     -69.82200000
C      -48.79120000     -32.31050000     -70.24720000
C      -48.84150000     -31.87650000     -71.60410000
H      -48.64490000     -32.66930000     -73.59230000
H      -47.62750000     -35.48020000     -70.60890000
H      -49.08100000     -31.56400000     -69.53720000
H      -49.33280000     -30.93750000     -71.79560000
C      -48.04590000     -33.90280000     -68.33290000
H      -48.68950000     -34.74960000     -68.07220000
H      -48.21250000     -33.04730000     -67.62320000
C      -48.08820000     -35.20630000     -73.28040000
H      -48.90550000     -35.92120000     -73.17040000
H      -48.24670000     -34.66260000     -74.21210000
S      -46.35340000     -34.70550000     -68.16630000
S      -46.66370000     -36.32810000     -73.18220000
C      -44.96950000     -33.45250000     -68.39970000
H      -44.71960000     -32.86580000     -67.43160000
H      -44.09790000     -34.10910000     -68.57170000
C      -45.05650000     -35.42860000     -72.83850000
H      -44.21960000     -35.86980000     -73.36030000
H      -44.79540000     -35.71900000     -71.82780000
C      -45.33520000     -33.96890000     -72.94980000
H      -45.63580000     -33.84010000     -73.99650000
H      -46.13150000     -33.65140000     -72.18960000
C      -45.17820000     -32.45290000     -69.58130000
H      -45.68490000     -31.57680000     -69.18860000
H      -45.84410000     -32.91000000     -70.27240000
C      -43.89880000     -32.11380000     -70.28150000
C      -42.94370000     -31.40580000     -69.63810000
C      -43.54370000     -32.42180000     -71.69250000
H      -42.96820000     -31.11890000     -68.58090000
C      -42.21550000     -32.01810000     -71.90940000
C      -44.10840000     -33.11090000     -72.82100000
C      -43.27980000     -33.06000000     -73.93070000
S      -41.45920000     -31.19590000     -70.59630000
S      -41.68030000     -32.31460000     -73.59760000
H      -43.45990000     -33.58670000     -74.89520000
