40
Properties=species:S:1:pos:R:3 #=T CELL(abcABC):=T 1.889726e+02=T 90.00000=T Traj:=T positionsangstrom=T Step:=T 0=T Bead:=T pbc="F F F"
C      -47.66190000     -32.40270000     -69.06830000
C      -46.81330000     -31.32660000     -69.28150000
C      -45.40510000     -31.49900000     -69.01210000
C      -44.95930000     -32.72900000     -68.55480000
C      -45.77270000     -33.86620000     -68.48180000
C      -47.11740000     -33.63090000     -68.66760000
H      -48.69730000     -32.14120000     -69.22560000
H      -44.70200000     -30.67060000     -69.11810000
H      -45.45980000     -34.84690000     -68.08480000
H      -47.78200000     -34.47530000     -68.60440000
C      -43.55030000     -32.94120000     -68.11490000
H      -43.57240000     -33.24630000     -67.05860000
H      -42.92740000     -32.11400000     -68.24400000
C      -47.31840000     -29.94340000     -69.70520000
H      -48.35860000     -29.78620000     -69.59870000
H      -46.75930000     -29.12380000     -69.20770000
S      -42.90320000     -34.35700000     -69.20900000
S      -47.03980000     -29.59010000     -71.59980000
C      -41.89810000     -33.66020000     -70.55430000
H      -41.22490000     -32.78410000     -70.24780000
H      -41.35000000     -34.51580000     -70.86860000
C      -47.31670000     -31.25450000     -72.42190000
H      -47.93890000     -31.09220000     -73.30080000
H      -47.92880000     -31.94800000     -71.80350000
C      -45.92760000     -31.81490000     -72.80450000
H      -45.59340000     -31.44440000     -73.77090000
H      -45.17000000     -31.50730000     -72.10210000
C      -42.72650000     -33.16010000     -71.80070000
H      -42.11380000     -32.63320000     -72.61600000
H      -43.36130000     -32.34630000     -71.37200000
C      -43.55260000     -34.28280000     -72.46270000
C      -42.93150000     -35.47350000     -72.73580000
C      -44.92710000     -34.23960000     -72.93250000
H      -41.98210000     -35.75120000     -72.31800000
C      -45.32180000     -35.51270000     -73.35930000
C      -46.00170000     -33.31410000     -72.99340000
C      -47.14880000     -33.93550000     -73.50210000
S      -44.09830000     -36.70530000     -73.41380000
S      -46.95960000     -35.61570000     -73.95240000
H      -48.05660000     -33.33480000     -73.62080000
