40
Properties=species:S:1:pos:R:3 #=T CELL(abcABC):=T 1.889726e+02=T 90.00000=T Traj:=T positionsangstrom=T Step:=T 0=T Bead:=T pbc="F F F"
C      -48.85720000     -32.74470000     -72.68640000
C      -48.45860000     -34.07510000     -72.32850000
C      -48.20840000     -34.31840000     -70.97550000
C      -48.27180000     -33.35610000     -69.95380000
C      -48.61850000     -32.07230000     -70.31490000
C      -48.91190000     -31.78860000     -71.62680000
H      -49.02910000     -32.49540000     -73.70210000
H      -47.75890000     -35.25800000     -70.71590000
H      -48.54540000     -31.27520000     -69.60340000
H      -49.20650000     -30.76830000     -72.01770000
C      -47.96540000     -33.74980000     -68.50010000
H      -48.83200000     -34.23320000     -68.11110000
H      -47.86170000     -32.81950000     -67.92250000
C      -48.17830000     -35.20450000     -73.28070000
H      -48.98100000     -35.98030000     -73.26140000
H      -48.06510000     -34.88150000     -74.28220000
S      -46.60610000     -34.84000000     -68.08270000
S      -46.73580000     -36.23370000     -72.92760000
C      -45.09180000     -34.00530000     -68.74340000
H      -44.62730000     -33.36540000     -67.97620000
H      -44.44550000     -34.81670000     -69.03440000
C      -45.04170000     -35.34520000     -72.66750000
H      -44.27640000     -36.00800000     -72.98510000
H      -44.95870000     -35.21100000     -71.55860000
C      -45.02660000     -33.89030000     -73.34360000
H      -45.11000000     -34.01530000     -74.48920000
H      -45.90950000     -33.25420000     -73.05300000
C      -45.26840000     -33.08630000     -69.95110000
H      -45.94890000     -32.31830000     -69.65990000
H      -45.73200000     -33.58910000     -70.80710000
C      -43.96910000     -32.34150000     -70.41470000
C      -43.21140000     -31.59540000     -69.58840000
C      -43.39410000     -32.52290000     -71.71620000
H      -43.53970000     -31.38550000     -68.61880000
C      -42.24370000     -31.78160000     -71.88670000
C      -43.71110000     -33.20480000     -72.98560000
C      -42.69460000     -32.98630000     -73.93870000
S      -41.65840000     -31.22160000     -70.32850000
S      -41.25190000     -32.15240000     -73.30640000
H      -42.86560000     -33.26940000     -74.97520000
