40
Properties=species:S:1:pos:R:3 #=T CELL(abcABC):=T 1.889726e+02=T 90.00000=T Traj:=T positionsangstrom=T Step:=T 0=T Bead:=T pbc="F F F"
C      -47.79830000     -34.65600000     -71.24050000
C      -46.76730000     -35.55110000     -71.02200000
C      -45.89240000     -35.35040000     -69.95820000
C      -45.99070000     -34.17840000     -69.15840000
C      -47.00500000     -33.25480000     -69.45000000
C      -47.89090000     -33.52880000     -70.49760000
H      -48.35730000     -34.85490000     -72.14180000
H      -45.13080000     -36.07150000     -69.71550000
H      -47.15870000     -32.31550000     -68.90220000
H      -48.69310000     -32.84760000     -70.64200000
C      -44.97900000     -33.86300000     -68.05250000
H      -44.38790000     -34.79680000     -67.89610000
H      -45.54500000     -33.80060000     -67.12650000
C      -46.69200000     -36.83270000     -71.81690000
H      -47.19020000     -37.54600000     -71.25640000
H      -47.18110000     -36.64090000     -72.75520000
S      -43.89110000     -32.43380000     -68.28590000
S      -44.91520000     -37.26030000     -72.31340000
C      -42.75710000     -33.13010000     -69.62640000
H      -41.77980000     -33.42870000     -69.23470000
H      -43.15780000     -34.12540000     -69.93480000
C      -44.32310000     -35.92320000     -73.42870000
H      -44.97460000     -35.98380000     -74.31440000
H      -43.42330000     -36.37140000     -73.79780000
C      -43.99230000     -34.61610000     -72.64730000
H      -43.83340000     -34.95890000     -71.61160000
H      -42.94400000     -34.21760000     -73.04480000
C      -42.53800000     -32.15490000     -70.74400000
H      -41.87590000     -32.59830000     -71.46570000
H      -41.87970000     -31.35490000     -70.29100000
C      -43.77750000     -31.54920000     -71.37330000
C      -44.16940000     -30.21860000     -71.07420000
C      -44.74550000     -32.18680000     -72.20100000
H      -43.66280000     -29.60550000     -70.25890000
C      -45.76250000     -31.31000000     -72.57920000
C      -44.93120000     -33.46380000     -72.85910000
C      -46.05820000     -33.49230000     -73.57740000
S      -45.68200000     -29.78820000     -71.73130000
S      -46.78520000     -31.93130000     -73.79460000
H      -46.47130000     -34.26560000     -74.15480000
