40
Properties=species:S:1:pos:R:3 #=T CELL(abcABC):=T 1.889726e+02=T 90.00000=T Traj:=T positionsangstrom=T Step:=T 0=T Bead:=T pbc="F F F"
C      -48.61960000     -32.70050000     -72.61730000
C      -48.23190000     -34.06070000     -72.25050000
C      -48.13890000     -34.27890000     -70.85800000
C      -48.31620000     -33.24460000     -69.92990000
C      -48.81540000     -31.98540000     -70.32860000
C      -48.89520000     -31.72450000     -71.67300000
H      -48.69270000     -32.43830000     -73.73690000
H      -47.92070000     -35.25040000     -70.56190000
H      -49.03720000     -31.26100000     -69.53410000
H      -49.29890000     -30.79910000     -72.08510000
C      -47.93850000     -33.43430000     -68.48100000
H      -48.78310000     -33.91550000     -67.99860000
H      -47.62800000     -32.47400000     -68.00240000
C      -48.01840000     -34.99680000     -73.36960000
H      -48.98980000     -35.39040000     -73.63170000
H      -47.71990000     -34.40710000     -74.28750000
S      -46.67580000     -34.76990000     -68.23400000
S      -46.68000000     -36.28700000     -73.04450000
C      -45.15470000     -34.08260000     -68.94290000
H      -44.46040000     -33.78150000     -68.17720000
H      -44.66500000     -34.96130000     -69.35610000
C      -45.18010000     -35.35790000     -72.69390000
H      -44.36070000     -36.05060000     -72.98170000
H      -45.06350000     -35.22900000     -71.62480000
C      -44.90600000     -34.00700000     -73.42180000
H      -44.84730000     -34.21970000     -74.44630000
H      -45.75540000     -33.32640000     -73.20180000
C      -45.30990000     -33.09990000     -70.03550000
H      -45.95030000     -32.26440000     -69.70400000
H      -45.80500000     -33.45870000     -70.94480000
C      -43.90240000     -32.60130000     -70.32790000
C      -43.27740000     -31.87720000     -69.39300000
C      -43.23480000     -32.80460000     -71.61080000
H      -43.80410000     -31.59470000     -68.54850000
C      -42.14070000     -32.00500000     -71.70850000
C      -43.63300000     -33.34360000     -72.93830000
C      -42.67370000     -33.03490000     -73.94370000
S      -41.79330000     -31.21940000     -70.17130000
S      -41.38220000     -31.98400000     -73.30450000
H      -42.80390000     -33.28360000     -74.98730000
