40
Properties=species:S:1:pos:R:3 #=T CELL(abcABC):=T 1.889726e+02=T 90.00000=T Traj:=T positionsangstrom=T Step:=T 0=T Bead:=T pbc="F F F"
C      -47.67340000     -34.63890000     -71.07560000
C      -46.67900000     -35.48180000     -70.63080000
C      -45.90240000     -35.19100000     -69.52190000
C      -46.01220000     -33.92980000     -68.93020000
C      -47.02460000     -33.05020000     -69.36190000
C      -47.82290000     -33.39020000     -70.46640000
H      -48.38160000     -34.77430000     -71.86360000
H      -45.11750000     -35.95850000     -69.25470000
H      -47.07260000     -32.08190000     -68.90230000
H      -48.60190000     -32.77090000     -70.84770000
C      -45.10590000     -33.52080000     -67.78980000
H      -44.72110000     -34.37880000     -67.19740000
H      -45.71610000     -32.92660000     -67.01500000
C      -46.48540000     -36.70290000     -71.48260000
H      -46.96260000     -37.54410000     -70.90370000
H      -47.12140000     -36.53930000     -72.36800000
S      -43.75540000     -32.43790000     -68.36000000
S      -44.59430000     -36.97550000     -71.92240000
C      -43.04290000     -33.42760000     -69.73740000
H      -42.13380000     -33.99610000     -69.32720000
H      -43.75380000     -34.18900000     -70.09720000
C      -44.46200000     -36.10120000     -73.48300000
H      -45.47190000     -36.15460000     -73.95650000
H      -43.81960000     -36.73540000     -74.08060000
C      -43.96720000     -34.62590000     -73.46070000
H      -43.18900000     -34.58870000     -72.72360000
H      -43.52650000     -34.50600000     -74.47270000
C      -42.60360000     -32.45320000     -70.86300000
H      -42.09270000     -33.06440000     -71.60290000
H      -41.90290000     -31.74460000     -70.49260000
C      -43.84460000     -31.78460000     -71.40730000
C      -44.14510000     -30.50730000     -71.08440000
C      -44.78930000     -32.37360000     -72.37160000
H      -43.64050000     -29.85790000     -70.43970000
C      -45.82690000     -31.46560000     -72.68010000
C      -44.99940000     -33.58420000     -73.18850000
C      -46.12160000     -33.40360000     -74.06110000
S      -45.64490000     -29.88500000     -71.89200000
S      -47.04840000     -31.96780000     -73.79180000
H      -46.53770000     -34.22290000     -74.59960000
