40
Properties=species:S:1:pos:R:3 #=T CELL(abcABC):=T 1.889726e+02=T 90.00000=T Traj:=T positionsangstrom=T Step:=T 0=T Bead:=T pbc="F F F"
C      -43.82070000     -35.88610000     -73.99860000
C      -42.99350000     -34.92390000     -73.39750000
C      -43.20670000     -33.57270000     -73.62120000
C      -44.31580000     -33.10510000     -74.30620000
C      -45.13290000     -34.05950000     -74.84180000
C      -45.00070000     -35.45750000     -74.60340000
H      -43.72730000     -36.92570000     -73.81270000
H      -42.58900000     -32.96330000     -73.03600000
H      -46.02450000     -33.68110000     -75.48320000
H      -45.74950000     -36.23310000     -74.89570000
C      -44.43100000     -31.61650000     -74.41030000
H      -44.02400000     -31.36650000     -75.34100000
H      -43.84550000     -31.12360000     -73.60540000
C      -41.85060000     -35.39150000     -72.57510000
H      -42.11580000     -36.47340000     -72.20030000
H      -40.90890000     -35.44900000     -73.06370000
S      -46.16530000     -30.86260000     -74.33140000
S      -41.42700000     -34.43810000     -71.07150000
C      -46.55200000     -30.89890000     -72.48900000
H      -45.74770000     -30.47790000     -71.89560000
H      -47.45950000     -30.32730000     -72.43280000
C      -42.88280000     -34.43220000     -69.94700000
H      -42.53050000     -33.93000000     -69.00380000
H      -43.06990000     -35.48770000     -69.60530000
C      -44.12440000     -33.64220000     -70.34620000
H      -43.87820000     -32.59590000     -70.51960000
H      -44.43730000     -34.00460000     -71.32540000
C      -46.88030000     -32.35380000     -72.14270000
H      -45.95330000     -32.89120000     -72.39030000
H      -47.78460000     -32.70040000     -72.75780000
C      -47.28780000     -32.51400000     -70.67150000
C      -48.56780000     -32.10400000     -70.23930000
C      -46.51930000     -33.05850000     -69.52220000
H      -49.46600000     -31.85290000     -70.85610000
C      -47.37540000     -33.27000000     -68.41070000
C      -45.23760000     -33.66420000     -69.29590000
C      -45.06480000     -34.20410000     -68.04370000
S      -49.04930000     -32.74990000     -68.58460000
S      -46.57080000     -34.17310000     -67.13910000
H      -44.16050000     -34.69580000     -67.63840000
