40
Properties=species:S:1:pos:R:3 #=T CELL(abcABC):=T 1.889726e+02=T 90.00000=T Traj:=T positionsangstrom=T Step:=T 0=T Bead:=T pbc="F F F"
C      -48.25750000     -32.48510000     -73.18570000
C      -48.45850000     -33.65850000     -72.47080000
C      -48.60320000     -33.69200000     -71.08380000
C      -48.46950000     -32.49280000     -70.36510000
C      -48.32100000     -31.25520000     -71.04430000
C      -48.28800000     -31.24210000     -72.46270000
H      -48.24840000     -32.49310000     -74.27070000
H      -48.75480000     -34.62630000     -70.53790000
H      -48.30270000     -30.29160000     -70.57470000
H      -48.22470000     -30.35090000     -73.02120000
C      -48.63550000     -32.56330000     -68.86030000
H      -49.61550000     -33.01450000     -68.68770000
H      -48.66200000     -31.54930000     -68.45890000
C      -48.49440000     -34.97590000     -73.25320000
H      -48.55960000     -35.77150000     -72.59250000
H      -49.25470000     -35.09840000     -74.05630000
S      -47.25710000     -33.42920000     -67.98030000
S      -46.92900000     -35.37430000     -74.12200000
C      -45.88850000     -32.47900000     -68.72800000
H      -46.25470000     -31.46960000     -68.86480000
H      -45.05800000     -32.48790000     -68.03660000
C      -45.64240000     -34.86250000     -72.90990000
H      -44.87650000     -35.59940000     -72.81250000
H      -46.19310000     -34.81740000     -71.93330000
C      -44.96520000     -33.59320000     -73.31730000
H      -44.86870000     -33.56340000     -74.43200000
H      -45.53680000     -32.70600000     -73.05210000
C      -45.28740000     -33.21580000     -69.97340000
H      -45.89620000     -32.93680000     -70.82180000
H      -45.39970000     -34.31880000     -69.82070000
C      -43.79480000     -32.95590000     -70.11170000
C      -42.89310000     -32.70330000     -69.13400000
C      -43.09380000     -33.16640000     -71.33390000
H      -43.12310000     -32.26240000     -68.17190000
C      -41.73300000     -33.18050000     -71.19110000
C      -43.49980000     -33.53140000     -72.74680000
C      -42.42460000     -33.91710000     -73.49730000
S      -41.19600000     -32.75310000     -69.59490000
S      -40.89880000     -33.90800000     -72.60110000
H      -42.38920000     -34.25200000     -74.52620000
