40
Properties=species:S:1:pos:R:3 #=T CELL(abcABC):=T 1.889726e+02=T 90.00000=T Traj:=T positionsangstrom=T Step:=T 0=T Bead:=T pbc="F F F"
C      -46.82360000     -35.32710000     -72.07650000
C      -47.63810000     -34.48600000     -71.34230000
C      -47.32360000     -34.28080000     -69.98190000
C      -46.25510000     -34.89170000     -69.34850000
C      -45.57560000     -35.82650000     -70.08000000
C      -45.81230000     -36.01300000     -71.41810000
H      -47.03180000     -35.53740000     -73.16800000
H      -47.89980000     -33.54550000     -69.35320000
H      -44.74560000     -36.32390000     -69.53430000
H      -45.15720000     -36.71730000     -71.93270000
C      -45.91360000     -34.65060000     -67.92090000
H      -46.18890000     -35.60670000     -67.37780000
H      -46.37820000     -33.69330000     -67.49560000
C      -48.82950000     -33.71980000     -71.91010000
H      -49.64840000     -34.42730000     -72.35670000
H      -49.41450000     -33.19860000     -71.11320000
S      -44.07830000     -34.39070000     -67.73300000
S      -48.53370000     -32.59820000     -73.37730000
C      -43.86890000     -32.49970000     -67.98860000
H      -44.27590000     -32.00850000     -67.03460000
H      -42.68980000     -32.45970000     -67.90040000
C      -47.89360000     -31.11890000     -72.55910000
H      -48.67760000     -30.68260000     -71.87450000
H      -47.81620000     -30.40840000     -73.38060000
C      -46.55290000     -31.26750000     -71.81140000
H      -46.22090000     -30.21800000     -71.56240000
H      -46.61510000     -31.84220000     -70.89660000
C      -44.41050000     -31.92720000     -69.27490000
H      -44.17250000     -30.85780000     -69.23270000
H      -45.46540000     -32.22130000     -69.36340000
C      -43.78140000     -32.52390000     -70.53190000
C      -42.54480000     -33.13990000     -70.50000000
C      -44.29090000     -32.39840000     -71.92190000
H      -41.93870000     -33.39190000     -69.61640000
C      -43.31630000     -32.90880000     -72.83660000
C      -45.47560000     -32.01430000     -72.59300000
C      -45.40290000     -32.20770000     -73.94540000
S      -41.85970000     -33.51660000     -72.11430000
S      -43.97120000     -33.07240000     -74.45830000
H      -46.16700000     -32.14590000     -74.70580000
