40
Properties=species:S:1:pos:R:3 #=T CELL(abcABC):=T 1.889726e+02=T 90.00000=T Traj:=T positionsangstrom=T Step:=T 0=T Bead:=T pbc="F F F"
C      -46.88400000     -34.97600000     -71.89870000
C      -47.75420000     -34.19930000     -71.11330000
C      -47.42930000     -34.14670000     -69.75640000
C      -46.30760000     -34.84190000     -69.27450000
C      -45.38100000     -35.51590000     -70.12060000
C      -45.73280000     -35.55120000     -71.45160000
H      -47.05400000     -35.01140000     -72.93010000
H      -48.00860000     -33.63420000     -69.02290000
H      -44.46120000     -35.93240000     -69.78770000
H      -45.17450000     -36.11590000     -72.21250000
C      -45.94650000     -34.73010000     -67.79740000
H      -46.08830000     -35.79360000     -67.29270000
H      -46.73860000     -34.08430000     -67.27680000
C      -48.98560000     -33.56330000     -71.71890000
H      -49.76770000     -34.30020000     -71.85780000
H      -49.46170000     -32.92760000     -70.89930000
S      -44.14640000     -34.33180000     -67.62030000
S      -48.62130000     -32.65840000     -73.24530000
C      -43.98680000     -32.55600000     -68.02310000
H      -44.68830000     -31.87930000     -67.35220000
H      -42.93170000     -32.31950000     -67.85610000
C      -47.79620000     -31.11730000     -72.53650000
H      -48.54130000     -30.74070000     -71.80740000
H      -47.62560000     -30.44780000     -73.38940000
C      -46.49360000     -31.43410000     -71.79910000
H      -46.20210000     -30.51720000     -71.33260000
H      -46.80790000     -31.96500000     -70.82210000
C      -44.33990000     -32.15890000     -69.48070000
H      -44.24070000     -31.05590000     -69.42820000
H      -45.37510000     -32.22840000     -69.54430000
C      -43.65290000     -32.71410000     -70.69050000
C      -42.49400000     -33.39120000     -70.68120000
C      -44.16590000     -32.65910000     -72.00720000
H      -41.83720000     -33.63670000     -69.87440000
C      -43.33750000     -33.16970000     -73.02370000
C      -45.41280000     -32.11610000     -72.56760000
C      -45.42910000     -32.21980000     -73.93170000
S      -41.78130000     -33.68110000     -72.25650000
S      -43.93630000     -32.98600000     -74.64400000
H      -46.29390000     -31.85060000     -74.57150000
