40
Properties=species:S:1:pos:R:3 #=T CELL(abcABC):=T 1.889726e+02=T 90.00000=T Traj:=T positionsangstrom=T Step:=T 0=T Bead:=T pbc="F F F"
C      -48.03180000     -32.66450000     -73.20180000
C      -48.32280000     -33.76070000     -72.34630000
C      -48.64930000     -33.51700000     -70.98630000
C      -48.63460000     -32.19450000     -70.47500000
C      -48.36480000     -31.11720000     -71.32030000
C      -48.10320000     -31.39690000     -72.68020000
H      -47.78690000     -32.83450000     -74.27570000
H      -48.95970000     -34.22560000     -70.18410000
H      -48.49220000     -30.13730000     -70.92300000
H      -47.83070000     -30.61830000     -73.39020000
C      -48.81920000     -31.93560000     -69.01550000
H      -49.70510000     -32.37910000     -68.55250000
H      -48.71090000     -30.93190000     -68.65660000
C      -48.16930000     -35.19160000     -72.75500000
H      -47.72000000     -35.67210000     -71.86030000
H      -49.15140000     -35.58240000     -73.00930000
S      -47.50610000     -32.82500000     -68.02260000
S      -47.07050000     -35.49860000     -74.24400000
C      -45.82200000     -32.36900000     -68.60170000
H      -45.63870000     -31.32420000     -68.50170000
H      -45.19060000     -32.73250000     -67.78780000
C      -45.25230000     -35.41830000     -73.44460000
H      -44.60680000     -35.75510000     -74.24610000
H      -45.16200000     -36.01360000     -72.53110000
C      -44.90620000     -33.92960000     -73.23360000
H      -45.00700000     -33.47920000     -74.20350000
H      -45.60830000     -33.48280000     -72.58690000
C      -45.34430000     -32.96360000     -69.94570000
H      -45.69920000     -32.47740000     -70.86430000
H      -45.78460000     -33.97040000     -70.00180000
C      -43.83930000     -33.21070000     -70.03460000
C      -42.95470000     -33.01000000     -69.01760000
C      -43.18490000     -33.41300000     -71.30110000
H      -43.23110000     -32.92750000     -68.01010000
C      -41.73200000     -33.38540000     -71.15290000
C      -43.46940000     -33.76350000     -72.65360000
C      -42.38350000     -33.75490000     -73.49790000
S      -41.22060000     -33.20830000     -69.40000000
S      -40.84720000     -33.52690000     -72.64980000
H      -42.50200000     -33.74640000     -74.58070000
