40
Properties=species:S:1:pos:R:3 #=T CELL(abcABC):=T 1.889726e+02=T 90.00000=T Traj:=T positionsangstrom=T Step:=T 0=T Bead:=T pbc="F F F"
C      -47.38480000     -34.97630000     -71.64210000
C      -47.93200000     -33.95290000     -70.83140000
C      -47.36770000     -33.65900000     -69.56350000
C      -46.25660000     -34.46780000     -69.12700000
C      -45.79160000     -35.50350000     -69.93730000
C      -46.36820000     -35.78590000     -71.16740000
H      -47.63100000     -35.03910000     -72.74070000
H      -47.58600000     -32.74440000     -68.89380000
H      -44.99160000     -36.17080000     -69.68500000
H      -45.85360000     -36.43970000     -71.89710000
C      -45.66400000     -34.19760000     -67.77310000
H      -46.24390000     -34.77000000     -67.03790000
H      -45.96050000     -33.13820000     -67.44430000
C      -48.97790000     -33.07850000     -71.47100000
H      -49.93960000     -33.63830000     -71.56390000
H      -49.22560000     -32.15360000     -70.93500000
S      -43.80930000     -34.34080000     -67.68400000
S      -48.42950000     -32.46020000     -73.15600000
C      -43.48450000     -32.58430000     -68.13640000
H      -44.01700000     -32.00850000     -67.28770000
H      -42.43980000     -32.37060000     -68.08360000
C      -47.53840000     -30.84680000     -72.58740000
H      -48.26000000     -30.34570000     -71.88030000
H      -47.49630000     -30.27050000     -73.52150000
C      -46.21620000     -31.04590000     -71.94330000
H      -45.66940000     -30.07960000     -71.79950000
H      -46.26430000     -31.42670000     -70.93310000
C      -44.03000000     -32.12870000     -69.49990000
H      -43.71350000     -31.17730000     -69.78270000
H      -45.08180000     -32.16050000     -69.52340000
C      -43.59310000     -32.94200000     -70.71600000
C      -42.58140000     -33.87040000     -70.81130000
C      -44.21140000     -32.72180000     -72.03680000
H      -41.80180000     -34.08060000     -70.06140000
C      -43.54040000     -33.45300000     -73.04230000
C      -45.28730000     -32.00770000     -72.65280000
C      -45.33760000     -32.18120000     -74.05190000
S      -42.23390000     -34.39120000     -72.50320000
S      -44.09450000     -33.23120000     -74.73560000
H      -46.11370000     -31.80510000     -74.74770000
