40
Properties=species:S:1:pos:R:3 #=T CELL(abcABC):=T 1.889726e+02=T 90.00000=T Traj:=T positionsangstrom=T Step:=T 0=T Bead:=T pbc="F F F"
C      -47.51000000     -35.17650000     -71.74640000
C      -47.95560000     -34.11130000     -70.96990000
C      -47.40400000     -33.86120000     -69.67790000
C      -46.35490000     -34.64470000     -69.23140000
C      -45.86040000     -35.70660000     -70.00090000
C      -46.44410000     -35.95200000     -71.25760000
H      -48.04730000     -35.50320000     -72.64180000
H      -47.92070000     -33.18430000     -69.05870000
H      -45.10200000     -36.41510000     -69.62770000
H      -46.03800000     -36.78880000     -71.79440000
C      -45.84280000     -34.29750000     -67.83130000
H      -46.00250000     -35.21300000     -67.25280000
H      -46.18950000     -33.48240000     -67.24290000
C      -49.03330000     -33.14380000     -71.50320000
H      -49.94630000     -33.67450000     -71.64420000
H      -49.16920000     -32.36590000     -70.77360000
S      -43.98310000     -34.13930000     -67.79880000
S      -48.46970000     -32.34900000     -73.08820000
C      -43.39630000     -32.45760000     -68.25980000
H      -43.67680000     -31.79380000     -67.45230000
H      -42.30420000     -32.52780000     -68.34370000
C      -47.48090000     -30.89780000     -72.53330000
H      -48.12730000     -30.27860000     -71.89510000
H      -47.34570000     -30.36830000     -73.42320000
C      -46.12520000     -31.13790000     -71.84720000
H      -45.65820000     -30.15990000     -71.79250000
H      -46.36240000     -31.58740000     -70.89600000
C      -43.98720000     -31.91540000     -69.61080000
H      -43.73890000     -30.78360000     -69.64400000
H      -45.07100000     -31.91040000     -69.49040000
C      -43.45400000     -32.68690000     -70.78520000
C      -42.38350000     -33.52720000     -70.76000000
C      -44.10340000     -32.73910000     -72.04850000
H      -41.68130000     -33.69120000     -69.93150000
C      -43.41020000     -33.47550000     -73.01590000
C      -45.21430000     -31.97790000     -72.63450000
C      -45.26960000     -32.13880000     -74.01440000
S      -42.14570000     -34.35160000     -72.29790000
S      -44.09450000     -33.37150000     -74.62650000
H      -45.88030000     -31.53880000     -74.63470000
