40
Properties=species:S:1:pos:R:3 #=T CELL(abcABC):=T 1.889726e+02=T 90.00000=T Traj:=T positionsangstrom=T Step:=T 0=T Bead:=T pbc="F F F"
C      -47.22450000     -35.15120000     -72.01630000
C      -47.79180000     -34.13640000     -71.15880000
C      -47.17680000     -33.90840000     -69.89620000
C      -46.10590000     -34.72280000     -69.44350000
C      -45.52430000     -35.61280000     -70.30210000
C      -46.09660000     -35.83340000     -71.57540000
H      -47.58830000     -35.19360000     -73.09620000
H      -47.59820000     -33.11790000     -69.24280000
H      -44.61740000     -36.14060000     -69.99980000
H      -45.67590000     -36.56210000     -72.23380000
C      -45.70680000     -34.68970000     -67.95420000
H      -45.92860000     -35.68700000     -67.56360000
H      -46.28700000     -34.04270000     -67.34730000
C      -48.96260000     -33.30960000     -71.64430000
H      -49.73800000     -33.95830000     -71.93560000
H      -49.40370000     -32.53640000     -70.98100000
S      -43.94340000     -34.32600000     -67.84090000
S      -48.58590000     -32.52520000     -73.22140000
C      -43.89970000     -32.46900000     -68.01390000
H      -44.45740000     -31.82860000     -67.29800000
H      -42.86290000     -32.22260000     -67.80110000
C      -47.73610000     -30.97730000     -72.63660000
H      -48.35030000     -30.46310000     -71.87050000
H      -47.59100000     -30.30860000     -73.44800000
C      -46.41230000     -31.19700000     -71.90790000
H      -45.93660000     -30.32560000     -71.56720000
H      -46.59450000     -31.81710000     -70.96710000
C      -44.37700000     -31.97350000     -69.37500000
H      -44.45170000     -30.87300000     -69.31330000
H      -45.41130000     -32.25280000     -69.49270000
C      -43.68670000     -32.49810000     -70.61850000
C      -42.56880000     -33.28510000     -70.48560000
C      -44.22450000     -32.50270000     -71.97110000
H      -42.03380000     -33.42340000     -69.53730000
C      -43.35630000     -33.16470000     -72.82240000
C      -45.36880000     -32.02440000     -72.63420000
C      -45.41540000     -32.44410000     -73.93580000
S      -41.94340000     -33.87060000     -72.00850000
S      -43.99050000     -33.41580000     -74.46620000
H      -46.21910000     -32.23440000     -74.66210000
