40
Properties=species:S:1:pos:R:3 #=T CELL(abcABC):=T 1.889726e+02=T 90.00000=T Traj:=T positionsangstrom=T Step:=T 0=T Bead:=T pbc="F F F"
C      -46.96800000     -34.90280000     -72.04700000
C      -47.88990000     -34.27250000     -71.11380000
C      -47.49700000     -34.25520000     -69.80170000
C      -46.28640000     -34.83000000     -69.32070000
C      -45.45960000     -35.44330000     -70.22800000
C      -45.81540000     -35.52720000     -71.56550000
H      -47.07410000     -34.95100000     -73.08120000
H      -48.18230000     -33.68570000     -69.14380000
H      -44.43720000     -35.80560000     -69.94260000
H      -45.12710000     -36.06390000     -72.21060000
C      -45.83750000     -34.70800000     -67.87050000
H      -45.99530000     -35.61640000     -67.30940000
H      -46.47850000     -33.95330000     -67.51720000
C      -49.09480000     -33.52500000     -71.53380000
H      -49.86850000     -34.23160000     -71.89160000
H      -49.55630000     -32.86320000     -70.82290000
S      -44.09360000     -34.24360000     -67.44930000
S      -48.83370000     -32.61910000     -73.11450000
C      -43.89810000     -32.50180000     -68.07800000
H      -44.39920000     -31.87630000     -67.38340000
H      -42.86900000     -32.20850000     -67.92770000
C      -47.79130000     -31.13800000     -72.66530000
H      -48.35250000     -30.42770000     -72.09450000
H      -47.51880000     -30.65120000     -73.55300000
C      -46.50640000     -31.40710000     -71.89120000
H      -46.08130000     -30.39760000     -71.69230000
H      -46.64170000     -31.94740000     -70.92460000
C      -44.48530000     -32.24620000     -69.42460000
H      -44.68650000     -31.17070000     -69.58170000
H      -45.40780000     -32.85100000     -69.56330000
C      -43.63320000     -32.65630000     -70.64970000
C      -42.41830000     -33.29640000     -70.57700000
C      -44.08680000     -32.49570000     -72.04020000
H      -41.94590000     -33.71090000     -69.73100000
C      -43.20870000     -33.05110000     -72.99760000
C      -45.36130000     -32.09200000     -72.74020000
C      -45.28860000     -32.37440000     -74.11740000
S      -41.83030000     -33.80910000     -72.21840000
S      -43.74830000     -33.10720000     -74.62570000
H      -46.05520000     -32.18110000     -74.87470000
