40
Properties=species:S:1:pos:R:3 #=T CELL(abcABC):=T 1.889726e+02=T 90.00000=T Traj:=T positionsangstrom=T Step:=T 0=T Bead:=T pbc="F F F"
C      -47.21200000     -34.93950000     -71.53300000
C      -47.75900000     -33.89140000     -70.78250000
C      -47.18230000     -33.57580000     -69.54190000
C      -46.19990000     -34.46460000     -69.00070000
C      -45.74600000     -35.54310000     -69.79030000
C      -46.20000000     -35.70450000     -71.04350000
H      -47.62900000     -35.15770000     -72.53110000
H      -47.56670000     -32.62520000     -68.98790000
H      -44.84700000     -36.00630000     -69.39780000
H      -45.69620000     -36.52780000     -71.60450000
C      -45.64140000     -34.24940000     -67.63710000
H      -45.84470000     -35.13990000     -67.05180000
H      -46.07420000     -33.36770000     -67.27310000
C      -48.87710000     -33.04950000     -71.36020000
H      -49.77990000     -33.68280000     -71.39300000
H      -49.19400000     -32.32080000     -70.62200000
S      -43.80760000     -34.33400000     -67.65710000
S      -48.61030000     -32.29460000     -73.06390000
C      -43.27070000     -32.69010000     -68.36960000
H      -43.18960000     -31.91890000     -67.62240000
H      -42.26310000     -32.82830000     -68.68660000
C      -47.60960000     -30.75890000     -72.74860000
H      -48.13040000     -30.10660000     -72.07940000
H      -47.32610000     -30.24060000     -73.69360000
C      -46.31260000     -31.05520000     -71.98440000
H      -45.96110000     -30.10200000     -71.58430000
H      -46.62020000     -31.64890000     -71.06480000
C      -44.06380000     -32.23140000     -69.64830000
H      -43.88720000     -31.12280000     -69.73900000
H      -45.20070000     -32.24980000     -69.51010000
C      -43.58840000     -32.94600000     -70.84310000
C      -42.68230000     -33.95510000     -70.87850000
C      -44.15500000     -32.73250000     -72.20220000
H      -42.23090000     -34.47840000     -70.08970000
C      -43.55260000     -33.56450000     -73.16110000
C      -45.24220000     -31.89660000     -72.71090000
C      -45.36770000     -32.11820000     -74.08790000
S      -42.29780000     -34.55480000     -72.48020000
S      -44.21100000     -33.20930000     -74.75600000
H      -46.14560000     -31.71290000     -74.78490000
