40
Properties=species:S:1:pos:R:3 #=T CELL(abcABC):=T 1.889726e+02=T 90.00000=T Traj:=T positionsangstrom=T Step:=T 0=T Bead:=T pbc="F F F"
C      -47.25000000     -35.18700000     -71.97610000
C      -47.73060000     -34.09180000     -71.17990000
C      -47.20520000     -33.89820000     -69.91720000
C      -46.27210000     -34.76130000     -69.30470000
C      -45.78640000     -35.88460000     -70.06200000
C      -46.29710000     -36.07910000     -71.36840000
H      -47.50630000     -35.30270000     -72.95190000
H      -47.71130000     -33.14350000     -69.31340000
H      -45.26010000     -36.66320000     -69.53950000
H      -46.03350000     -36.96860000     -71.96600000
C      -45.78020000     -34.50920000     -67.90330000
H      -46.04930000     -35.21660000     -67.12080000
H      -46.23910000     -33.55280000     -67.65900000
C      -48.84870000     -33.23280000     -71.61420000
H      -49.78910000     -33.77830000     -71.72590000
H      -49.05170000     -32.58070000     -70.81210000
S      -43.97450000     -34.23180000     -67.94010000
S      -48.63060000     -32.31990000     -73.19650000
C      -43.55690000     -32.42460000     -68.16390000
H      -44.02500000     -31.90800000     -67.28040000
H      -42.48590000     -32.42070000     -68.11650000
C      -47.65930000     -30.80480000     -72.68400000
H      -48.29710000     -30.23720000     -72.04910000
H      -47.47570000     -30.13430000     -73.51650000
C      -46.43930000     -31.19310000     -71.87250000
H      -45.87280000     -30.28520000     -71.57090000
H      -46.72330000     -31.52660000     -70.89410000
C      -44.09290000     -31.86810000     -69.39970000
H      -43.84720000     -30.78200000     -69.54570000
H      -45.17860000     -32.06260000     -69.43670000
C      -43.53390000     -32.50960000     -70.63270000
C      -42.36750000     -33.21440000     -70.57610000
C      -44.15840000     -32.53420000     -71.93970000
H      -41.68660000     -33.45510000     -69.80540000
C      -43.39070000     -33.34150000     -72.84820000
C      -45.46050000     -32.11750000     -72.59720000
C      -45.45800000     -32.51040000     -73.92190000
S      -41.91990000     -33.96880000     -72.15460000
S      -44.10520000     -33.53870000     -74.42220000
H      -46.34120000     -32.34030000     -74.56470000
