40
Properties=species:S:1:pos:R:3 #=T CELL(abcABC):=T 1.889726e+02=T 90.00000=T Traj:=T positionsangstrom=T Step:=T 0=T Bead:=T pbc="F F F"
C      -43.87260000     -35.84910000     -73.77360000
C      -43.00170000     -34.84350000     -73.29440000
C      -43.35520000     -33.46960000     -73.47340000
C      -44.40210000     -33.10580000     -74.28680000
C      -45.15140000     -34.17200000     -74.86120000
C      -44.99640000     -35.53070000     -74.53640000
H      -43.70790000     -36.89720000     -73.50430000
H      -42.66660000     -32.76070000     -73.11950000
H      -45.98370000     -33.96700000     -75.57430000
H      -45.55610000     -36.32580000     -74.96420000
C      -44.56880000     -31.62820000     -74.66500000
H      -44.53390000     -31.47490000     -75.76180000
H      -43.69560000     -31.05620000     -74.26530000
C      -41.82210000     -35.24780000     -72.51550000
H      -42.02420000     -36.27330000     -72.30740000
H      -40.97510000     -35.26750000     -73.19820000
S      -46.16390000     -30.91090000     -74.31300000
S      -41.42530000     -34.25090000     -70.99100000
C      -46.41020000     -31.12120000     -72.50320000
H      -45.57430000     -30.93660000     -71.81430000
H      -47.15080000     -30.37840000     -72.12870000
C      -42.92730000     -34.58640000     -69.96610000
H      -42.49700000     -34.45170000     -68.96470000
H      -43.23890000     -35.59500000     -70.03830000
C      -44.18080000     -33.75130000     -70.42660000
H      -43.82630000     -32.74980000     -70.62740000
H      -44.58310000     -34.21470000     -71.35970000
C      -46.81140000     -32.62380000     -72.19270000
H      -45.96530000     -33.28290000     -72.33370000
H      -47.58730000     -32.94760000     -72.91090000
C      -47.31980000     -32.81700000     -70.77000000
C      -48.65540000     -32.53670000     -70.40440000
C      -46.55470000     -33.13370000     -69.57430000
H      -49.37170000     -32.24600000     -71.17100000
C      -47.38120000     -33.16620000     -68.39770000
C      -45.24020000     -33.70670000     -69.34240000
C      -45.00570000     -34.04640000     -68.01870000
S      -49.03880000     -32.73100000     -68.66540000
S      -46.44200000     -33.81760000     -67.04810000
H      -44.14710000     -34.60700000     -67.62740000
