40
Properties=species:S:1:pos:R:3 #=T CELL(abcABC):=T 1.889726e+02=T 90.00000=T Traj:=T positionsangstrom=T Step:=T 0=T Bead:=T pbc="F F F"
C      -47.25890000     -35.16390000     -72.02830000
C      -47.84490000     -34.22960000     -71.13370000
C      -47.37470000     -34.09300000     -69.81570000
C      -46.25100000     -34.78790000     -69.36570000
C      -45.67770000     -35.77640000     -70.22090000
C      -46.20910000     -35.95920000     -71.49890000
H      -47.81990000     -35.38920000     -72.89030000
H      -47.91890000     -33.32320000     -69.14130000
H      -44.79050000     -36.37860000     -69.86600000
H      -45.75250000     -36.61140000     -72.22880000
C      -45.75770000     -34.57570000     -67.92480000
H      -45.77860000     -35.42050000     -67.22610000
H      -46.25220000     -33.72640000     -67.42360000
C      -48.99120000     -33.33880000     -71.64740000
H      -49.87370000     -33.97150000     -71.76730000
H      -49.12380000     -32.49120000     -70.89370000
S      -43.87770000     -34.25250000     -67.78680000
S      -48.54270000     -32.44560000     -73.30430000
C      -43.76860000     -32.42640000     -67.95610000
H      -44.39600000     -31.95470000     -67.19800000
H      -42.72520000     -32.11330000     -67.75730000
C      -47.56350000     -30.85720000     -72.81330000
H      -48.42270000     -30.18300000     -72.44190000
H      -47.21940000     -30.49120000     -73.75460000
C      -46.32400000     -31.03720000     -71.93150000
H      -45.85110000     -30.02680000     -72.00220000
H      -46.62360000     -31.35590000     -70.90420000
C      -44.16270000     -31.90510000     -69.31640000
H      -44.10840000     -30.80250000     -69.24530000
H      -45.24890000     -32.15630000     -69.35220000
C      -43.51100000     -32.50480000     -70.56960000
C      -42.27790000     -33.11330000     -70.59900000
C      -44.18420000     -32.62270000     -71.91720000
H      -41.45130000     -33.25790000     -69.90960000
C      -43.47100000     -33.43170000     -72.81270000
C      -45.39370000     -32.03650000     -72.58210000
C      -45.40930000     -32.33310000     -73.93170000
S      -41.95640000     -33.86860000     -72.14410000
S      -44.20310000     -33.50450000     -74.41240000
H      -46.10700000     -31.96570000     -74.73240000
