40
Properties=species:S:1:pos:R:3 #=T CELL(abcABC):=T 1.889726e+02=T 90.00000=T Traj:=T positionsangstrom=T Step:=T 0=T Bead:=T pbc="F F F"
C      -47.39990000     -35.22310000     -71.85940000
C      -47.84810000     -34.11600000     -71.13320000
C      -47.30850000     -33.84060000     -69.85390000
C      -46.26440000     -34.60680000     -69.30330000
C      -45.87090000     -35.80370000     -69.92790000
C      -46.44930000     -36.05930000     -71.19760000
H      -47.74100000     -35.43440000     -72.81140000
H      -47.48700000     -32.95630000     -69.39450000
H      -45.02500000     -36.33820000     -69.63100000
H      -46.17470000     -36.96110000     -71.75850000
C      -45.67270000     -34.38320000     -67.90240000
H      -45.96640000     -35.32100000     -67.33120000
H      -46.16000000     -33.54470000     -67.39900000
C      -48.98580000     -33.25890000     -71.66730000
H      -49.80600000     -33.91250000     -72.06620000
H      -49.41060000     -32.63650000     -70.81970000
S      -43.83970000     -34.23420000     -67.88010000
S      -48.64290000     -32.18770000     -73.18000000
C      -43.78360000     -32.39450000     -68.09120000
H      -44.46000000     -31.85210000     -67.46270000
H      -42.80970000     -32.03710000     -67.64650000
C      -47.62600000     -30.78500000     -72.60610000
H      -48.19210000     -30.13470000     -71.95110000
H      -47.34820000     -30.18920000     -73.55490000
C      -46.31920000     -31.18860000     -71.87130000
H      -45.86270000     -30.20960000     -71.66780000
H      -46.56180000     -31.61190000     -70.85990000
C      -44.03050000     -31.90990000     -69.54820000
H      -43.60970000     -30.93350000     -69.53490000
H      -45.08370000     -31.65500000     -69.70570000
C      -43.47150000     -32.67370000     -70.75380000
C      -42.35920000     -33.43350000     -70.66570000
C      -44.08790000     -32.70250000     -71.99480000
H      -41.71140000     -33.66490000     -69.85680000
C      -43.32650000     -33.37500000     -72.94600000
C      -45.29200000     -32.09580000     -72.56950000
C      -45.40390000     -32.43430000     -73.91760000
S      -41.95630000     -34.15180000     -72.21550000
S      -44.11120000     -33.46600000     -74.48980000
H      -46.17980000     -32.13140000     -74.57900000
