40
Properties=species:S:1:pos:R:3 #=T CELL(abcABC):=T 1.889726e+02=T 90.00000=T Traj:=T positionsangstrom=T Step:=T 0=T Bead:=T pbc="F F F"
C      -44.00690000     -37.28490000     -71.49380000
C      -43.59350000     -35.98730000     -71.94580000
C      -44.38490000     -35.39790000     -72.90210000
C      -45.47730000     -36.06790000     -73.51290000
C      -45.84890000     -37.37140000     -73.00530000
C      -45.16880000     -37.92960000     -71.97900000
H      -43.54100000     -37.85990000     -70.63230000
H      -44.09990000     -34.44590000     -73.25880000
H      -46.72750000     -37.81820000     -73.41140000
H      -45.41740000     -38.83120000     -71.43140000
C      -46.25740000     -35.44640000     -74.58730000
H      -46.61490000     -36.10520000     -75.40640000
H      -45.75670000     -34.52540000     -74.94880000
C      -42.42640000     -35.31900000     -71.19090000
H      -42.77850000     -34.70810000     -70.34460000
H      -41.59850000     -36.02390000     -70.98520000
S      -47.85580000     -34.74520000     -73.91050000
S      -41.54630000     -33.93650000     -72.15970000
C      -47.22100000     -33.25930000     -72.87860000
H      -46.38680000     -32.78120000     -73.36680000
H      -48.07460000     -32.56250000     -72.96870000
C      -42.32800000     -32.51860000     -71.28160000
H      -41.89940000     -31.60360000     -71.71670000
H      -41.97090000     -32.46210000     -70.22060000
C      -43.84400000     -32.56270000     -71.29080000
H      -44.33480000     -32.50400000     -72.24080000
H      -44.06110000     -33.55320000     -71.01680000
C      -47.03130000     -33.67040000     -71.41680000
H      -46.06220000     -34.19580000     -71.30420000
H      -47.78400000     -34.44560000     -71.11500000
C      -47.04510000     -32.49360000     -70.47350000
C      -48.15300000     -32.06310000     -69.78920000
C      -45.92650000     -31.67590000     -70.05990000
H      -49.10530000     -32.47510000     -69.85500000
C      -46.20090000     -30.64460000     -69.12320000
C      -44.51760000     -31.52790000     -70.35540000
C      -43.84140000     -30.54000000     -69.66790000
S      -48.00880000     -30.57600000     -68.88480000
S      -44.86780000     -29.67760000     -68.57270000
H      -42.79030000     -30.25850000     -69.65770000
