40
Properties=species:S:1:pos:R:3 #=T CELL(abcABC):=T 1.889726e+02=T 90.00000=T Traj:=T positionsangstrom=T Step:=T 0=T Bead:=T pbc="F F F"
C      -47.24900000     -34.73190000     -71.54300000
C      -47.66840000     -33.70050000     -70.68520000
C      -47.16350000     -33.62630000     -69.40500000
C      -46.16830000     -34.51750000     -68.94950000
C      -45.72620000     -35.50540000     -69.85500000
C      -46.20670000     -35.64110000     -71.16740000
H      -47.56940000     -34.79570000     -72.60180000
H      -47.47570000     -32.77360000     -68.72570000
H      -44.94650000     -36.17910000     -69.49180000
H      -45.86800000     -36.45310000     -71.79720000
C      -45.50300000     -34.24580000     -67.64640000
H      -45.74450000     -35.07380000     -66.93120000
H      -45.81110000     -33.27990000     -67.21120000
C      -48.73860000     -32.72420000     -71.22810000
H      -49.71250000     -33.24700000     -71.25570000
H      -48.84430000     -31.92290000     -70.50190000
S      -43.59490000     -34.21910000     -67.68690000
S      -48.44520000     -32.06080000     -72.86700000
C      -43.21630000     -32.61860000     -68.39270000
H      -43.35010000     -31.78910000     -67.67430000
H      -42.12590000     -32.65710000     -68.52900000
C      -47.37680000     -30.58690000     -72.41010000
H      -47.96990000     -30.20300000     -71.63900000
H      -47.40900000     -29.92030000     -73.26620000
C      -45.92510000     -30.91000000     -71.97460000
H      -45.42540000     -29.90380000     -72.02730000
H      -45.97840000     -31.21200000     -70.88590000
C      -43.83020000     -32.18990000     -69.71640000
H      -43.47700000     -31.12220000     -69.80920000
H      -44.94720000     -32.06160000     -69.56520000
C      -43.63650000     -33.04610000     -70.93230000
C      -42.69680000     -34.05190000     -71.01540000
C      -44.25500000     -32.89090000     -72.24510000
H      -41.92180000     -34.18960000     -70.18880000
C      -43.79400000     -33.71570000     -73.24460000
C      -45.23640000     -31.97920000     -72.82280000
C      -45.47510000     -32.09630000     -74.17740000
S      -42.69720000     -34.91440000     -72.57740000
S      -44.57580000     -33.50840000     -74.82200000
H      -46.20870000     -31.60080000     -74.70480000
