40
Properties=species:S:1:pos:R:3 #=T CELL(abcABC):=T 1.889726e+02=T 90.00000=T Traj:=T positionsangstrom=T Step:=T 0=T Bead:=T pbc="F F F"
C      -47.51080000     -34.80590000     -71.51450000
C      -47.69920000     -33.53970000     -70.84660000
C      -46.95840000     -33.37550000     -69.62190000
C      -46.04250000     -34.32150000     -69.13870000
C      -45.91310000     -35.48800000     -69.87660000
C      -46.60400000     -35.73250000     -71.07470000
H      -48.11790000     -34.97550000     -72.43280000
H      -46.82350000     -32.40450000     -69.23870000
H      -45.07240000     -36.06310000     -69.53170000
H      -46.31650000     -36.63580000     -71.59840000
C      -45.29020000     -34.21240000     -67.79580000
H      -45.65280000     -35.03360000     -67.20120000
H      -45.56020000     -33.26550000     -67.26330000
C      -48.73680000     -32.54210000     -71.14080000
H      -49.67270000     -32.95580000     -71.03190000
H      -48.76870000     -31.82720000     -70.29320000
S      -43.44490000     -34.33530000     -67.91230000
S      -48.52710000     -31.76820000     -72.75010000
C      -42.94810000     -32.51300000     -68.51880000
H      -43.30600000     -31.89310000     -67.67950000
H      -41.91800000     -32.56860000     -68.61360000
C      -47.28490000     -30.41110000     -72.35860000
H      -47.64520000     -29.77420000     -71.53730000
H      -47.32510000     -29.79240000     -73.27760000
C      -45.90160000     -30.87440000     -71.96230000
H      -45.30860000     -29.90090000     -71.99900000
H      -45.98940000     -31.03360000     -70.85490000
C      -43.63660000     -32.11630000     -69.82590000
H      -43.20400000     -31.12640000     -70.14560000
H      -44.70550000     -31.96570000     -69.68670000
C      -43.42930000     -33.10920000     -70.97760000
C      -42.63750000     -34.22960000     -71.00310000
C      -44.22760000     -32.89040000     -72.18520000
H      -41.97210000     -34.60160000     -70.22730000
C      -43.93430000     -33.93430000     -73.12420000
C      -45.25490000     -31.98540000     -72.72270000
C      -45.63720000     -32.32720000     -73.97870000
S      -42.75490000     -35.09010000     -72.52300000
S      -44.70190000     -33.67260000     -74.65900000
H      -46.35280000     -31.77270000     -74.60260000
