40
Properties=species:S:1:pos:R:3 #=T CELL(abcABC):=T 1.889726e+02=T 90.00000=T Traj:=T positionsangstrom=T Step:=T 0=T Bead:=T pbc="F F F"
C      -47.61730000     -34.66070000     -71.50760000
C      -47.77770000     -33.52270000     -70.70860000
C      -46.94810000     -33.40570000     -69.58520000
C      -46.12590000     -34.46170000     -69.07650000
C      -45.99350000     -35.54530000     -69.94100000
C      -46.78410000     -35.71540000     -71.05450000
H      -48.23380000     -34.79260000     -72.37300000
H      -47.17710000     -32.61560000     -68.88720000
H      -45.48570000     -36.42640000     -69.49720000
H      -46.70370000     -36.52470000     -71.70950000
C      -45.32480000     -34.24110000     -67.80000000
H      -45.54280000     -34.98840000     -67.03230000
H      -45.57070000     -33.21810000     -67.45480000
C      -48.69480000     -32.39600000     -71.00210000
H      -49.77470000     -32.73020000     -70.93840000
H      -48.51650000     -31.51080000     -70.31480000
S      -43.43680000     -34.26680000     -67.91380000
S      -48.52590000     -31.64680000     -72.71620000
C      -42.87500000     -32.63510000     -68.51880000
H      -43.13320000     -31.86640000     -67.78120000
H      -41.76090000     -32.56880000     -68.56500000
C      -47.17240000     -30.39180000     -72.35400000
H      -47.55240000     -29.69690000     -71.65060000
H      -47.11070000     -29.84630000     -73.33550000
C      -45.86130000     -30.96690000     -71.90450000
H      -45.06520000     -30.25050000     -71.76800000
H      -45.99880000     -31.40670000     -70.91420000
C      -43.50230000     -32.11000000     -69.83270000
H      -42.90330000     -31.22240000     -70.01220000
H      -44.52050000     -31.83270000     -69.63560000
C      -43.43590000     -33.08920000     -71.00550000
C      -42.52880000     -34.12920000     -71.05030000
C      -44.24710000     -32.98920000     -72.22410000
H      -41.73630000     -34.40340000     -70.40450000
C      -44.00940000     -34.03580000     -73.11320000
C      -45.27160000     -32.07670000     -72.78530000
C      -45.58750000     -32.33150000     -74.07810000
S      -42.65150000     -35.01110000     -72.58340000
S      -44.78870000     -33.82360000     -74.68590000
H      -46.43800000     -31.91320000     -74.68270000
