40
Properties=species:S:1:pos:R:3 #=T CELL(abcABC):=T 1.889726e+02=T 90.00000=T Traj:=T positionsangstrom=T Step:=T 0=T Bead:=T pbc="F F F"
C      -44.02590000     -35.74260000     -73.60910000
C      -43.01390000     -34.76750000     -73.40160000
C      -43.16270000     -33.45820000     -73.85410000
C      -44.37560000     -33.07900000     -74.44240000
C      -45.23290000     -34.12870000     -74.78180000
C      -44.99870000     -35.42240000     -74.48020000
H      -43.88390000     -36.81140000     -73.25640000
H      -42.36880000     -32.72200000     -73.64030000
H      -46.10550000     -33.91780000     -75.30570000
H      -45.78990000     -36.08070000     -74.82030000
C      -44.68400000     -31.67500000     -74.95550000
H      -44.80370000     -31.67460000     -76.05670000
H      -43.91780000     -30.94910000     -74.71610000
C      -41.78020000     -35.06470000     -72.53140000
H      -41.74950000     -36.05390000     -72.13800000
H      -40.79950000     -34.95710000     -73.11120000
S      -46.31570000     -31.12390000     -74.26910000
S      -41.41440000     -33.98230000     -70.96670000
C      -46.09550000     -31.63360000     -72.50470000
H      -45.06290000     -31.47060000     -72.24170000
H      -46.70430000     -30.85840000     -72.01230000
C      -42.72680000     -34.47310000     -69.78720000
H      -42.61640000     -34.02110000     -68.80240000
H      -42.67630000     -35.58620000     -69.61520000
C      -44.12870000     -33.95740000     -70.26280000
H      -44.03150000     -32.99680000     -70.81160000
H      -44.50880000     -34.60940000     -71.02690000
C      -46.81720000     -33.00150000     -72.21880000
H      -46.15510000     -33.84870000     -72.48740000
H      -47.66150000     -33.14890000     -72.87000000
C      -47.30530000     -33.07430000     -70.78610000
C      -48.62070000     -32.72350000     -70.45740000
C      -46.60460000     -33.37070000     -69.58720000
H      -49.31610000     -32.31340000     -71.17020000
C      -47.39050000     -33.25790000     -68.46540000
C      -45.23030000     -33.67950000     -69.20910000
C      -45.05060000     -33.83500000     -67.85500000
S      -49.01780000     -32.70030000     -68.76070000
S      -46.50270000     -33.51000000     -66.95760000
H      -44.10800000     -33.92580000     -67.36760000
