40
Properties=species:S:1:pos:R:3 #=T CELL(abcABC):=T 1.889726e+02=T 90.00000=T Traj:=T positionsangstrom=T Step:=T 0=T Bead:=T pbc="F F F"
C      -47.59510000     -34.03250000     -71.44270000
C      -47.74840000     -33.08190000     -70.45020000
C      -46.92220000     -33.11840000     -69.27540000
C      -46.07470000     -34.19460000     -69.07480000
C      -46.01410000     -35.21110000     -70.08430000
C      -46.77630000     -35.07760000     -71.28220000
H      -48.18350000     -33.85750000     -72.36740000
H      -46.93160000     -32.22840000     -68.58780000
H      -45.36230000     -36.08000000     -70.07010000
H      -46.45450000     -35.67550000     -72.08880000
C      -45.31960000     -34.30050000     -67.77530000
H      -45.63060000     -35.18460000     -67.25080000
H      -45.56810000     -33.47250000     -67.09990000
C      -48.66050000     -31.76820000     -70.64240000
H      -49.72450000     -31.98820000     -70.28820000
H      -48.12820000     -31.07470000     -70.08530000
S      -43.51590000     -34.68000000     -68.07600000
S      -48.67210000     -31.20350000     -72.45220000
C      -42.89560000     -33.04050000     -68.59830000
H      -43.00280000     -32.36730000     -67.75520000
H      -41.79100000     -33.11040000     -68.79210000
C      -47.00300000     -30.43070000     -72.78600000
H      -46.96880000     -29.40700000     -72.37680000
H      -46.74240000     -30.45300000     -73.85640000
C      -45.82130000     -31.10260000     -72.05000000
H      -45.00820000     -30.33520000     -72.06430000
H      -46.09720000     -31.25270000     -71.00140000
C      -43.53350000     -32.44990000     -69.80780000
H      -43.22430000     -31.36360000     -70.06550000
H      -44.64650000     -32.35200000     -69.59790000
C      -43.38160000     -33.29580000     -71.03090000
C      -42.42280000     -34.29200000     -71.15290000
C      -44.22200000     -33.14710000     -72.26020000
H      -41.67850000     -34.59140000     -70.42860000
C      -43.87570000     -34.16530000     -73.19070000
C      -45.30790000     -32.32370000     -72.74090000
C      -45.82180000     -32.78120000     -73.95920000
S      -42.51970000     -35.10000000     -72.70550000
S      -44.87530000     -34.11710000     -74.59810000
H      -46.65460000     -32.42550000     -74.58840000
