40
Properties=species:S:1:pos:R:3 #=T CELL(abcABC):=T 1.889726e+02=T 90.00000=T Traj:=T positionsangstrom=T Step:=T 0=T Bead:=T pbc="F F F"
C      -47.74850000     -34.00280000     -71.42530000
C      -47.77910000     -32.98470000     -70.43430000
C      -46.92200000     -33.06970000     -69.33930000
C      -46.09980000     -34.23970000     -69.16620000
C      -46.04520000     -35.16890000     -70.22800000
C      -46.85560000     -35.02950000     -71.35560000
H      -48.37430000     -33.98270000     -72.28800000
H      -46.85180000     -32.22720000     -68.61330000
H      -45.44950000     -36.04150000     -70.10900000
H      -46.84110000     -35.88830000     -72.01930000
C      -45.33180000     -34.41750000     -67.83060000
H      -45.71700000     -35.27710000     -67.23120000
H      -45.43780000     -33.51990000     -67.16230000
C      -48.56520000     -31.77090000     -70.62670000
H      -49.61730000     -31.75990000     -70.47050000
H      -48.26000000     -30.95230000     -69.94190000
S      -43.51000000     -34.58380000     -67.98980000
S      -48.59260000     -30.97740000     -72.34340000
C      -42.86380000     -32.87640000     -68.54860000
H      -43.04060000     -32.07790000     -67.81340000
H      -41.82200000     -33.05680000     -68.57950000
C      -46.90520000     -30.25210000     -72.62300000
H      -47.03840000     -29.27000000     -72.21520000
H      -46.85440000     -30.07740000     -73.71470000
C      -45.73980000     -31.06810000     -72.08810000
H      -44.87100000     -30.41570000     -71.98070000
H      -45.89790000     -31.39430000     -71.08010000
C      -43.43200000     -32.48400000     -69.90360000
H      -43.05170000     -31.49950000     -70.02500000
H      -44.49510000     -32.31090000     -69.83310000
C      -43.27160000     -33.34170000     -71.07930000
C      -42.51950000     -34.48160000     -71.16880000
C      -44.15330000     -33.19630000     -72.30840000
H      -41.80660000     -34.76910000     -70.44140000
C      -43.89780000     -34.23160000     -73.18970000
C      -45.23920000     -32.32920000     -72.84140000
C      -45.81180000     -32.84820000     -73.97340000
S      -42.64190000     -35.30220000     -72.69150000
S      -44.90440000     -34.24840000     -74.62720000
H      -46.83730000     -32.58700000     -74.30040000
