40
Properties=species:S:1:pos:R:3 #=T CELL(abcABC):=T 1.889726e+02=T 90.00000=T Traj:=T positionsangstrom=T Step:=T 0=T Bead:=T pbc="F F F"
C      -42.13760000     -35.76490000     -70.87140000
C      -42.34610000     -34.87200000     -71.97310000
C      -43.32300000     -35.16670000     -72.87020000
C      -44.12800000     -36.46350000     -72.76200000
C      -43.84310000     -37.25840000     -71.70460000
C      -42.85930000     -36.90500000     -70.77350000
H      -41.43530000     -35.54890000     -70.16340000
H      -43.42010000     -34.48080000     -73.70900000
H      -44.29020000     -38.22710000     -71.55580000
H      -42.68030000     -37.55950000     -69.90260000
C      -45.30360000     -36.54480000     -73.60940000
H      -45.22010000     -37.45260000     -74.30910000
H      -45.37480000     -35.65880000     -74.29360000
C      -41.46000000     -33.67000000     -72.09150000
H      -40.38880000     -33.80350000     -72.28660000
H      -41.87450000     -33.01960000     -72.87310000
S      -46.98820000     -36.73360000     -72.80330000
S      -41.64550000     -32.69400000     -70.44180000
C      -47.37150000     -34.94520000     -72.56450000
H      -47.09570000     -34.32320000     -73.44180000
H      -48.45730000     -34.90320000     -72.40750000
C      -43.49520000     -32.57360000     -70.24110000
H      -43.51280000     -31.88330000     -69.40770000
H      -43.84710000     -33.58930000     -69.97280000
C      -44.12000000     -31.92350000     -71.41620000
H      -43.48500000     -31.34400000     -72.05640000
H      -44.48430000     -32.69350000     -72.13900000
C      -46.80910000     -34.32340000     -71.23490000
H      -45.76210000     -34.29490000     -71.20820000
H      -47.14360000     -35.00280000     -70.45430000
C      -47.33320000     -32.93870000     -70.90810000
C      -48.66340000     -32.84670000     -70.64840000
C      -46.64330000     -31.66300000     -70.97350000
H      -49.33220000     -33.70180000     -70.62350000
C      -47.47110000     -30.67170000     -70.54170000
C      -45.28860000     -31.09570000     -70.97530000
C      -45.19130000     -29.76740000     -70.60110000
S      -49.18170000     -31.23360000     -70.30390000
S      -46.73370000     -29.17700000     -70.12850000
H      -44.33560000     -29.15220000     -70.61880000
