40
Properties=species:S:1:pos:R:3 #=T CELL(abcABC):=T 1.889726e+02=T 90.00000=T Traj:=T positionsangstrom=T Step:=T 0=T Bead:=T pbc="F F F"
C      -47.94990000     -34.06220000     -71.10240000
C      -47.65710000     -32.81740000     -70.46020000
C      -46.74040000     -32.77380000     -69.40450000
C      -46.21310000     -33.98780000     -68.96210000
C      -46.54970000     -35.19400000     -69.54000000
C      -47.33420000     -35.23530000     -70.71650000
H      -48.56190000     -34.02120000     -72.00650000
H      -46.47460000     -31.83230000     -68.89590000
H      -46.18750000     -36.12080000     -69.06380000
H      -47.46550000     -36.24290000     -71.11890000
C      -45.29750000     -34.09750000     -67.78710000
H      -45.71330000     -34.84820000     -67.02900000
H      -45.27820000     -33.15130000     -67.22120000
C      -48.42580000     -31.57530000     -70.80640000
H      -49.53100000     -31.56700000     -70.75450000
H      -48.12940000     -30.68460000     -70.39340000
S      -43.54650000     -34.65450000     -68.17710000
S      -48.25180000     -31.14330000     -72.62390000
C      -42.65570000     -33.18830000     -68.72690000
H      -42.64150000     -32.41250000     -67.93130000
H      -41.62510000     -33.50770000     -68.84830000
C      -46.62350000     -30.25000000     -72.66900000
H      -46.79760000     -29.29750000     -72.17030000
H      -46.45320000     -29.89750000     -73.65990000
C      -45.48620000     -30.94570000     -72.04360000
H      -44.64800000     -30.28600000     -72.26050000
H      -45.65060000     -30.91560000     -70.96900000
C      -43.05730000     -32.51470000     -70.07480000
H      -42.35090000     -31.65690000     -70.19600000
H      -44.00320000     -31.99290000     -69.91290000
C      -43.19110000     -33.42910000     -71.24870000
C      -42.43870000     -34.59690000     -71.35470000
C      -44.16460000     -33.25140000     -72.26360000
H      -41.60480000     -34.78020000     -70.65100000
C      -44.06370000     -34.28460000     -73.18670000
C      -45.12280000     -32.25050000     -72.72540000
C      -45.70060000     -32.56190000     -73.92350000
S      -42.87150000     -35.47930000     -72.83460000
S      -45.25050000     -34.18080000     -74.45400000
H      -46.58140000     -32.14050000     -74.33390000
