40
Properties=species:S:1:pos:R:3 #=T CELL(abcABC):=T 1.889726e+02=T 90.00000=T Traj:=T positionsangstrom=T Step:=T 0=T Bead:=T pbc="F F F"
C      -42.19210000     -36.10440000     -71.00170000
C      -42.27450000     -35.15840000     -72.02850000
C      -43.33750000     -35.27000000     -72.94520000
C      -44.31980000     -36.26940000     -72.86280000
C      -44.11330000     -37.31140000     -71.89810000
C      -43.04950000     -37.16000000     -70.98140000
H      -41.38650000     -36.08440000     -70.25490000
H      -43.37010000     -34.43590000     -73.77150000
H      -44.84210000     -38.13900000     -71.77480000
H      -42.86830000     -37.99870000     -70.36440000
C      -45.43410000     -36.35990000     -73.81280000
H      -45.50250000     -37.25880000     -74.41580000
H      -45.29670000     -35.60190000     -74.62570000
C      -41.36870000     -33.97570000     -72.05130000
H      -40.32390000     -34.24060000     -72.02600000
H      -41.55990000     -33.48410000     -72.98390000
S      -47.12910000     -36.32990000     -73.11820000
S      -41.45550000     -32.92010000     -70.50580000
C      -47.47690000     -34.63900000     -72.62740000
H      -47.13460000     -33.86910000     -73.31580000
H      -48.56960000     -34.47970000     -72.70660000
C      -43.22770000     -32.66060000     -70.20560000
H      -43.27850000     -32.01440000     -69.29560000
H      -43.55860000     -33.56510000     -69.75610000
C      -44.04050000     -32.02160000     -71.41010000
H      -43.40190000     -31.39500000     -72.04220000
H      -44.39520000     -32.87950000     -71.98120000
C      -47.01170000     -34.38320000     -71.18900000
H      -45.93520000     -34.61510000     -70.89050000
H      -47.65600000     -34.98040000     -70.57390000
C      -47.31910000     -32.89990000     -70.70350000
C      -48.60140000     -32.80190000     -70.15850000
C      -46.59200000     -31.66470000     -70.71450000
H      -49.39700000     -33.49260000     -70.03960000
C      -47.44810000     -30.65650000     -70.25670000
C      -45.27600000     -31.16390000     -71.00320000
C      -45.22080000     -29.78370000     -70.88790000
S      -49.00730000     -31.14870000     -69.69610000
S      -46.74230000     -29.07140000     -70.34570000
H      -44.34780000     -29.20630000     -71.24060000
