40
Properties=species:S:1:pos:R:3 #=T CELL(abcABC):=T 1.889726e+02=T 90.00000=T Traj:=T positionsangstrom=T Step:=T 0=T Bead:=T pbc="F F F"
C      -47.87560000     -33.92300000     -70.93310000
C      -47.71490000     -32.81000000     -70.13230000
C      -46.80990000     -32.78000000     -69.07530000
C      -46.00380000     -33.87540000     -68.85250000
C      -46.21630000     -35.01040000     -69.61410000
C      -47.18680000     -35.08890000     -70.64660000
H      -48.67930000     -33.85640000     -71.71050000
H      -46.93620000     -31.93510000     -68.33040000
H      -45.55220000     -35.89520000     -69.27890000
H      -47.30850000     -35.95530000     -71.24090000
C      -45.06280000     -33.85850000     -67.63380000
H      -45.48110000     -34.51940000     -66.88540000
H      -44.89720000     -32.88110000     -67.26390000
C      -48.44830000     -31.55010000     -70.39010000
H      -49.60270000     -31.55620000     -70.31460000
H      -47.98880000     -30.69420000     -69.92170000
S      -43.35670000     -34.58260000     -68.14410000
S      -48.33550000     -31.05390000     -72.22470000
C      -42.54420000     -33.08070000     -68.98260000
H      -42.46630000     -32.26620000     -68.30900000
H      -41.53280000     -33.43930000     -69.20220000
C      -46.69590000     -30.28660000     -72.29940000
H      -46.54240000     -29.34560000     -71.72430000
H      -46.51950000     -29.80640000     -73.26010000
C      -45.47720000     -31.24130000     -71.97950000
H      -44.60740000     -30.60960000     -71.69430000
H      -45.84550000     -31.70290000     -71.02330000
C      -43.27750000     -32.67220000     -70.24360000
H      -43.01250000     -31.61430000     -70.57390000
H      -44.27780000     -32.39420000     -69.98720000
C      -43.30720000     -33.58230000     -71.40420000
C      -42.62070000     -34.78500000     -71.49780000
C      -44.28580000     -33.40790000     -72.48380000
H      -41.93290000     -35.29520000     -70.87130000
C      -44.28770000     -34.45620000     -73.39400000
C      -45.13790000     -32.36300000     -72.90040000
C      -45.59070000     -32.48580000     -74.15920000
S      -43.13480000     -35.69960000     -73.02340000
S      -45.15160000     -34.02760000     -74.87170000
H      -46.19400000     -31.71070000     -74.73070000
