40
Properties=species:S:1:pos:R:3 #=T CELL(abcABC):=T 1.889726e+02=T 90.00000=T Traj:=T positionsangstrom=T Step:=T 0=T Bead:=T pbc="F F F"
C      -42.12120000     -35.90290000     -71.02900000
C      -42.33250000     -34.96490000     -72.03510000
C      -43.40190000     -35.17900000     -72.95930000
C      -44.27950000     -36.25030000     -72.84510000
C      -44.05130000     -37.14230000     -71.68820000
C      -43.01590000     -36.97800000     -70.83950000
H      -41.24510000     -35.76120000     -70.33960000
H      -43.57910000     -34.40950000     -73.67580000
H      -44.73410000     -37.94240000     -71.50970000
H      -42.92780000     -37.63470000     -70.01210000
C      -45.33740000     -36.58230000     -73.84430000
H      -45.22090000     -37.64500000     -74.12120000
H      -45.20270000     -35.95800000     -74.69930000
C      -41.55260000     -33.59740000     -72.06930000
H      -40.45830000     -33.69730000     -72.28540000
H      -41.95140000     -32.86500000     -72.80730000
S      -46.97780000     -36.55150000     -72.96520000
S      -41.55250000     -32.87190000     -70.42810000
C      -47.32060000     -34.72310000     -72.57430000
H      -46.83740000     -34.23850000     -73.44490000
H      -48.41740000     -34.62570000     -72.55730000
C      -43.39990000     -32.72910000     -70.12640000
H      -43.55630000     -32.14760000     -69.20640000
H      -43.90800000     -33.66610000     -69.99880000
C      -44.11260000     -32.09050000     -71.36450000
H      -43.31370000     -31.36630000     -71.74130000
H      -44.38360000     -32.84300000     -72.09460000
C      -46.66180000     -34.19970000     -71.24880000
H      -45.63290000     -34.02030000     -71.57630000
H      -46.59550000     -34.97720000     -70.43430000
C      -47.38860000     -32.96600000     -70.79860000
C      -48.72030000     -32.79950000     -70.49830000
C      -46.66440000     -31.71040000     -70.61880000
H      -49.46030000     -33.60670000     -70.41030000
C      -47.44280000     -30.65870000     -70.19880000
C      -45.27730000     -31.24040000     -70.99660000
C      -45.19160000     -29.88280000     -70.92440000
S      -49.15870000     -31.16720000     -69.96760000
S      -46.69440000     -29.16270000     -70.34190000
H      -44.21060000     -29.51390000     -70.90780000
