40
Properties=species:S:1:pos:R:3 #=T CELL(abcABC):=T 1.889726e+02=T 90.00000=T Traj:=T positionsangstrom=T Step:=T 0=T Bead:=T pbc="F F F"
C      -47.78990000     -34.01480000     -71.24190000
C      -47.66310000     -32.86730000     -70.45280000
C      -46.99100000     -32.96340000     -69.19620000
C      -46.25340000     -34.14090000     -68.95700000
C      -46.34910000     -35.25020000     -69.78780000
C      -47.23810000     -35.22190000     -70.89360000
H      -48.57720000     -34.07100000     -72.04260000
H      -46.80870000     -32.06840000     -68.57120000
H      -45.68590000     -36.11950000     -69.57420000
H      -47.33120000     -36.13760000     -71.48230000
C      -45.32250000     -34.14570000     -67.79970000
H      -45.61080000     -34.91260000     -67.05110000
H      -45.32400000     -33.25840000     -67.18570000
C      -48.39240000     -31.55030000     -70.79830000
H      -49.49100000     -31.80940000     -70.51960000
H      -48.09170000     -30.82990000     -70.09190000
S      -43.57870000     -34.55980000     -68.24100000
S      -48.23420000     -31.01130000     -72.51230000
C      -42.84460000     -32.94950000     -68.69610000
H      -43.17300000     -32.29560000     -67.91350000
H      -41.79840000     -33.13560000     -68.46360000
C      -46.53640000     -30.21330000     -72.53810000
H      -46.50110000     -29.34530000     -71.85500000
H      -46.43430000     -29.94690000     -73.59810000
C      -45.44990000     -31.11560000     -71.94400000
H      -44.59230000     -30.42510000     -71.91830000
H      -45.63780000     -31.33830000     -70.90540000
C      -43.12740000     -32.37180000     -70.08860000
H      -42.38410000     -31.58370000     -70.30790000
H      -44.04380000     -31.85970000     -70.07050000
C      -43.22670000     -33.37830000     -71.23830000
C      -42.51350000     -34.55220000     -71.32780000
C      -44.16310000     -33.26320000     -72.34660000
H      -41.89150000     -34.91930000     -70.52470000
C      -44.02440000     -34.27940000     -73.24620000
C      -45.26250000     -32.40440000     -72.74440000
C      -45.82600000     -32.79070000     -73.92270000
S      -42.84720000     -35.42260000     -72.74560000
S      -45.13960000     -34.26520000     -74.53720000
H      -46.55930000     -32.18440000     -74.37300000
