40
Properties=species:S:1:pos:R:3 #=T CELL(abcABC):=T 1.889726e+02=T 90.00000=T Traj:=T positionsangstrom=T Step:=T 0=T Bead:=T pbc="F F F"
C      -48.08570000     -34.07290000     -70.86680000
C      -47.69020000     -32.87600000     -70.30320000
C      -46.70210000     -32.84650000     -69.36510000
C      -46.10210000     -34.03020000     -68.89710000
C      -46.50770000     -35.27860000     -69.44030000
C      -47.40630000     -35.23410000     -70.46990000
H      -48.71310000     -33.95920000     -71.71030000
H      -46.43590000     -31.91660000     -68.93200000
H      -46.01020000     -36.17640000     -69.11510000
H      -47.60600000     -36.18540000     -70.99270000
C      -45.05540000     -33.85740000     -67.86180000
H      -45.38140000     -34.37000000     -66.99370000
H      -44.87440000     -32.78860000     -67.69100000
C      -48.38840000     -31.54250000     -70.80250000
H      -49.42110000     -31.66600000     -70.54910000
H      -47.90220000     -30.67480000     -70.18500000
S      -43.47560000     -34.78270000     -68.15380000
S      -48.24960000     -31.10100000     -72.59930000
C      -42.51770000     -33.33490000     -68.84600000
H      -42.48090000     -32.61040000     -68.04500000
H      -41.52280000     -33.66830000     -69.08820000
C      -46.70260000     -30.13630000     -72.64810000
H      -46.88040000     -29.24200000     -72.00290000
H      -46.53380000     -29.78450000     -73.72300000
C      -45.46250000     -30.91990000     -72.16370000
H      -44.50420000     -30.35800000     -72.44040000
H      -45.57340000     -31.07540000     -71.06180000
C      -43.15350000     -32.56630000     -69.98030000
H      -42.54640000     -31.67490000     -70.20260000
H      -44.24000000     -32.25860000     -69.77280000
C      -43.25650000     -33.40660000     -71.24270000
C      -42.46800000     -34.54890000     -71.41010000
C      -44.20710000     -33.19090000     -72.33530000
H      -41.58120000     -34.80950000     -70.82860000
C      -44.17690000     -34.32250000     -73.20300000
C      -45.19750000     -32.23480000     -72.83720000
C      -45.71320000     -32.51850000     -74.08160000
S      -42.92970000     -35.48760000     -72.82930000
S      -45.24980000     -34.12400000     -74.58070000
H      -46.54100000     -32.11790000     -74.61330000
