40
Properties=species:S:1:pos:R:3 #=T CELL(abcABC):=T 1.889726e+02=T 90.00000=T Traj:=T positionsangstrom=T Step:=T 0=T Bead:=T pbc="F F F"
C      -47.57300000     -33.91100000     -71.01610000
C      -47.42490000     -32.89700000     -70.07210000
C      -46.44570000     -33.01690000     -69.11090000
C      -45.66150000     -34.23110000     -69.00460000
C      -45.90560000     -35.25360000     -69.95410000
C      -46.93400000     -35.15220000     -70.87700000
H      -48.16120000     -33.91560000     -71.92460000
H      -46.30570000     -32.30190000     -68.36010000
H      -45.31960000     -36.13920000     -69.82820000
H      -47.04900000     -35.84660000     -71.67240000
C      -44.60590000     -34.20580000     -67.95520000
H      -44.85980000     -34.86330000     -67.13500000
H      -44.32010000     -33.25210000     -67.54930000
C      -48.31350000     -31.65970000     -70.25550000
H      -49.37410000     -31.89940000     -70.19990000
H      -48.07400000     -30.78670000     -69.61890000
S      -43.00830000     -34.89700000     -68.49420000
S      -48.26210000     -30.77760000     -71.90550000
C      -42.19560000     -33.38390000     -69.22160000
H      -41.97070000     -32.73330000     -68.42400000
H      -41.23340000     -33.74130000     -69.67090000
C      -46.63240000     -30.03890000     -71.95260000
H      -46.61310000     -29.33050000     -71.13280000
H      -46.56760000     -29.42520000     -72.83620000
C      -45.41380000     -30.96460000     -71.67970000
H      -44.47900000     -30.42940000     -71.78330000
H      -45.35530000     -31.41990000     -70.65180000
C      -43.05800000     -32.72630000     -70.31250000
H      -42.64910000     -31.81140000     -70.64810000
H      -43.98850000     -32.38200000     -69.78120000
C      -43.42760000     -33.58450000     -71.47830000
C      -42.92930000     -34.84290000     -71.73920000
C      -44.43440000     -33.19520000     -72.44950000
H      -42.08700000     -35.40680000     -71.31730000
C      -44.60190000     -34.21850000     -73.45880000
C      -45.31850000     -32.12890000     -72.68800000
C      -46.11070000     -32.30220000     -73.76950000
S      -43.60540000     -35.57970000     -73.13780000
S      -45.80910000     -33.87690000     -74.58080000
H      -47.05140000     -31.75900000     -73.97830000
