40
Properties=species:S:1:pos:R:3 #=T CELL(abcABC):=T 1.889726e+02=T 90.00000=T Traj:=T positionsangstrom=T Step:=T 0=T Bead:=T pbc="F F F"
C      -47.55200000     -33.38280000     -70.70090000
C      -47.12200000     -32.49710000     -69.74220000
C      -46.17760000     -32.89680000     -68.71710000
C      -45.73980000     -34.21180000     -68.65880000
C      -46.27160000     -35.16340000     -69.62670000
C      -47.05720000     -34.73370000     -70.71310000
H      -48.27060000     -33.05430000     -71.44650000
H      -45.79130000     -32.17400000     -67.98850000
H      -46.05130000     -36.23480000     -69.71000000
H      -47.35970000     -35.35000000     -71.58010000
C      -44.69220000     -34.58590000     -67.63830000
H      -45.07720000     -35.25690000     -66.79770000
H      -44.42330000     -33.59770000     -67.21470000
C      -47.53100000     -31.02430000     -69.96380000
H      -48.52730000     -31.04480000     -69.40090000
H      -46.83110000     -30.39630000     -69.36750000
S      -43.22500000     -35.39930000     -68.50440000
S      -47.79140000     -30.48890000     -71.67220000
C      -42.48100000     -33.94650000     -69.36210000
H      -42.11990000     -33.14200000     -68.67250000
H      -41.58320000     -34.44220000     -69.71410000
C      -46.08450000     -29.83070000     -71.98180000
H      -45.78790000     -29.02670000     -71.28730000
H      -46.00730000     -29.36250000     -72.97370000
C      -45.06040000     -31.00750000     -71.82390000
H      -44.10440000     -30.58330000     -72.09250000
H      -44.89150000     -31.28300000     -70.76620000
C      -43.18050000     -33.16760000     -70.41600000
H      -42.44670000     -32.43550000     -70.79710000
H      -44.02860000     -32.63820000     -69.93740000
C      -43.64130000     -33.88880000     -71.70160000
C      -43.21110000     -35.17880000     -72.03670000
C      -44.65550000     -33.39690000     -72.59210000
H      -42.36860000     -35.77790000     -71.64280000
C      -44.95920000     -34.30130000     -73.60680000
C      -45.25850000     -32.16980000     -72.73300000
C      -46.12370000     -32.19950000     -73.81870000
S      -43.87550000     -35.71920000     -73.58520000
S      -45.95510000     -33.58040000     -74.82660000
H      -46.86210000     -31.39210000     -74.00580000
