40
Properties=species:S:1:pos:R:3 #=T CELL(abcABC):=T 1.889726e+02=T 90.00000=T Traj:=T positionsangstrom=T Step:=T 0=T Bead:=T pbc="F F F"
C      -47.60960000     -33.97790000     -70.95520000
C      -47.35420000     -32.91680000     -70.16770000
C      -46.41950000     -33.01030000     -69.09670000
C      -45.67690000     -34.17990000     -68.95760000
C      -45.93750000     -35.30370000     -69.79590000
C      -46.86640000     -35.16860000     -70.78640000
H      -48.37930000     -33.99200000     -71.77260000
H      -46.21700000     -32.16670000     -68.41660000
H      -45.29790000     -36.20980000     -69.73020000
H      -47.12680000     -36.02730000     -71.32260000
C      -44.59580000     -34.32680000     -67.88060000
H      -45.02710000     -35.06800000     -67.13000000
H      -44.54170000     -33.40560000     -67.26890000
C      -48.23840000     -31.68870000     -70.23720000
H      -49.22190000     -32.08150000     -69.98070000
H      -47.90810000     -31.01620000     -69.42060000
S      -43.02440000     -35.01570000     -68.57270000
S      -48.27540000     -30.69130000     -71.83700000
C      -42.19750000     -33.51570000     -69.32120000
H      -41.99030000     -32.85440000     -68.48390000
H      -41.16360000     -33.83150000     -69.66280000
C      -46.54740000     -29.89640000     -71.89390000
H      -46.60080000     -29.02900000     -71.21580000
H      -46.46970000     -29.36870000     -72.88870000
C      -45.33840000     -30.86330000     -71.73460000
H      -44.46430000     -30.25840000     -72.07910000
H      -45.10620000     -30.96820000     -70.65130000
C      -42.95520000     -32.75880000     -70.33570000
H      -42.22570000     -31.98320000     -70.72550000
H      -43.82520000     -32.25720000     -69.90450000
C      -43.43080000     -33.61920000     -71.50590000
C      -42.79400000     -34.76900000     -71.82570000
C      -44.52070000     -33.22380000     -72.49040000
H      -41.98090000     -35.33530000     -71.28440000
C      -44.74460000     -34.23400000     -73.32480000
C      -45.39430000     -32.12510000     -72.70840000
C      -46.21110000     -32.28680000     -73.73110000
S      -43.52820000     -35.54870000     -73.27990000
S      -45.94400000     -33.81880000     -74.53670000
H      -46.97500000     -31.58690000     -74.06920000
