40
Properties=species:S:1:pos:R:3 #=T CELL(abcABC):=T 1.889726e+02=T 90.00000=T Traj:=T positionsangstrom=T Step:=T 0=T Bead:=T pbc="F F F"
C      -47.85680000     -33.51950000     -70.70490000
C      -47.30970000     -32.60570000     -69.81300000
C      -46.23120000     -32.94490000     -68.96450000
C      -45.73740000     -34.25190000     -68.96920000
C      -46.23050000     -35.13170000     -69.95160000
C      -47.28050000     -34.81350000     -70.76370000
H      -48.77070000     -33.30280000     -71.25500000
H      -45.84160000     -32.26890000     -68.23650000
H      -45.78660000     -36.11380000     -69.87680000
H      -47.74470000     -35.44970000     -71.47480000
C      -44.56420000     -34.53880000     -68.07620000
H      -44.90260000     -35.18460000     -67.26570000
H      -44.31140000     -33.66190000     -67.50980000
C      -47.99610000     -31.26930000     -69.74670000
H      -48.96770000     -31.43950000     -69.29900000
H      -47.48280000     -30.66050000     -68.95280000
S      -42.95070000     -35.19270000     -68.80090000
S      -48.16990000     -30.57830000     -71.46650000
C      -42.29790000     -33.48930000     -69.26670000
H      -42.43410000     -32.82000000     -68.44540000
H      -41.22870000     -33.52300000     -69.48560000
C      -46.48920000     -29.95510000     -71.88900000
H      -46.30830000     -29.02080000     -71.40760000
H      -46.49110000     -29.68610000     -72.92050000
C      -45.32400000     -31.03430000     -71.73730000
H      -44.41150000     -30.48180000     -71.84740000
H      -45.20840000     -31.47440000     -70.71840000
C      -43.01590000     -32.90330000     -70.50340000
H      -42.33480000     -32.18330000     -70.90020000
H      -43.89450000     -32.34440000     -70.12020000
C      -43.51800000     -33.86250000     -71.61260000
C      -42.92770000     -35.06800000     -71.95890000
C      -44.54300000     -33.37990000     -72.45790000
H      -42.05710000     -35.42380000     -71.48160000
C      -44.73530000     -34.35630000     -73.49100000
C      -45.32860000     -32.17030000     -72.66040000
C      -46.00520000     -32.22390000     -73.85420000
S      -43.67510000     -35.76120000     -73.36100000
S      -45.75900000     -33.70060000     -74.73670000
H      -46.59800000     -31.49200000     -74.29950000
