40
Properties=species:S:1:pos:R:3 #=T CELL(abcABC):=T 1.889726e+02=T 90.00000=T Traj:=T positionsangstrom=T Step:=T 0=T Bead:=T pbc="F F F"
C      -47.67190000     -33.48240000     -71.05430000
C      -47.30800000     -32.67400000     -69.97060000
C      -46.47850000     -33.14380000     -68.92210000
C      -45.96770000     -34.45830000     -68.99500000
C      -46.52950000     -35.32110000     -69.99570000
C      -47.20390000     -34.80440000     -71.09770000
H      -48.26210000     -33.10290000     -71.84680000
H      -46.20900000     -32.41360000     -68.13800000
H      -46.13450000     -36.34690000     -70.10310000
H      -47.42350000     -35.48870000     -71.90700000
C      -44.95250000     -34.86350000     -67.91550000
H      -45.33760000     -35.73760000     -67.24870000
H      -44.68510000     -34.08620000     -67.24480000
C      -47.86670000     -31.22100000     -69.90360000
H      -48.98020000     -31.29660000     -69.79640000
H      -47.39060000     -30.58220000     -69.07960000
S      -43.45260000     -35.72210000     -68.62050000
S      -47.69550000     -30.28250000     -71.48150000
C      -42.44320000     -34.31020000     -69.30370000
H      -42.00460000     -33.71960000     -68.49620000
H      -41.63230000     -34.82840000     -69.76920000
C      -45.94320000     -29.77430000     -71.55180000
H      -45.82880000     -29.18670000     -70.58680000
H      -45.78420000     -29.10240000     -72.41630000
C      -44.95960000     -30.93360000     -71.43980000
H      -43.97760000     -30.40790000     -71.29270000
H      -45.11360000     -31.54180000     -70.56680000
C      -43.23010000     -33.43130000     -70.19620000
H      -42.61230000     -32.56470000     -70.32110000
H      -44.13750000     -33.04280000     -69.64600000
C      -43.64690000     -34.00470000     -71.52120000
C      -43.36460000     -35.30330000     -71.92320000
C      -44.36730000     -33.24210000     -72.47790000
H      -42.92490000     -36.08940000     -71.36240000
C      -44.73870000     -34.08520000     -73.60730000
C      -44.99880000     -31.94120000     -72.58400000
C      -45.59720000     -31.65840000     -73.79720000
S      -44.01320000     -35.63660000     -73.51690000
S      -45.44170000     -33.04710000     -74.85860000
H      -46.26590000     -30.79370000     -74.06380000
