40
Properties=species:S:1:pos:R:3 #=T CELL(abcABC):=T 1.889726e+02=T 90.00000=T Traj:=T positionsangstrom=T Step:=T 0=T Bead:=T pbc="F F F"
C      -47.86870000     -33.51240000     -70.63520000
C      -47.22510000     -32.50980000     -69.79250000
C      -46.19550000     -32.81590000     -68.93780000
C      -45.79540000     -34.13870000     -68.79860000
C      -46.42470000     -35.13000000     -69.55670000
C      -47.38020000     -34.78320000     -70.50860000
H      -48.63740000     -33.37230000     -71.32440000
H      -45.66370000     -31.96710000     -68.44610000
H      -46.04390000     -36.13390000     -69.53240000
H      -47.84190000     -35.55580000     -71.08850000
C      -44.64740000     -34.54580000     -67.80640000
H      -45.05900000     -35.30820000     -67.14780000
H      -44.20090000     -33.67230000     -67.27170000
C      -47.71920000     -31.10170000     -69.83210000
H      -48.69820000     -31.03060000     -69.51210000
H      -47.14690000     -30.42790000     -69.12900000
S      -43.23390000     -35.42460000     -68.51040000
S      -47.77040000     -30.30230000     -71.60140000
C      -42.28130000     -34.10580000     -69.50760000
H      -41.73900000     -33.45390000     -68.83540000
H      -41.53120000     -34.70610000     -70.04420000
C      -45.90780000     -29.83370000     -71.90940000
H      -45.85030000     -29.01090000     -71.14920000
H      -45.77710000     -29.48720000     -72.91570000
C      -44.91040000     -30.98280000     -71.75030000
H      -43.92460000     -30.60650000     -71.94440000
H      -44.90600000     -31.50240000     -70.72360000
C      -43.09410000     -33.28420000     -70.44120000
H      -42.39280000     -32.47410000     -70.74820000
H      -43.87820000     -32.78360000     -69.84420000
C      -43.60280000     -34.02650000     -71.65470000
C      -43.24690000     -35.35710000     -72.00850000
C      -44.45470000     -33.36520000     -72.59690000
H      -42.68410000     -36.04620000     -71.35180000
C      -44.86080000     -34.23280000     -73.68330000
C      -45.05230000     -32.07900000     -72.74650000
C      -45.86920000     -32.01150000     -73.92020000
S      -44.07450000     -35.78350000     -73.56560000
S      -45.86610000     -33.54280000     -74.82540000
H      -46.57230000     -31.15960000     -74.09610000
