40
Properties=species:S:1:pos:R:3 #=T CELL(abcABC):=T 1.889726e+02=T 90.00000=T Traj:=T positionsangstrom=T Step:=T 0=T Bead:=T pbc="F F F"
C      -48.18550000     -33.50670000     -70.45120000
C      -47.44620000     -32.47700000     -69.81200000
C      -46.25320000     -32.75220000     -69.09200000
C      -45.78500000     -34.08130000     -69.04990000
C      -46.53050000     -35.11610000     -69.71140000
C      -47.70920000     -34.81980000     -70.30940000
H      -49.03120000     -33.37950000     -71.09690000
H      -45.73920000     -32.01850000     -68.43890000
H      -46.29190000     -36.17810000     -69.64460000
H      -48.35660000     -35.59460000     -70.71960000
C      -44.65170000     -34.36160000     -68.05490000
H      -45.03950000     -34.74320000     -67.11440000
H      -44.16050000     -33.44830000     -67.71530000
C      -47.88610000     -31.03790000     -69.85140000
H      -48.93210000     -30.86910000     -69.62250000
H      -47.20540000     -30.55260000     -69.14830000
S      -43.35520000     -35.56210000     -68.68890000
S      -47.62940000     -30.15420000     -71.41830000
C      -42.13460000     -34.38000000     -69.48360000
H      -41.64820000     -33.82670000     -68.69810000
H      -41.36470000     -34.95550000     -70.01750000
C      -45.84900000     -29.80690000     -71.73620000
H      -45.55440000     -29.03340000     -71.03740000
H      -45.79850000     -29.33680000     -72.68860000
C      -44.79790000     -30.96770000     -71.70780000
H      -43.76490000     -30.54560000     -71.87710000
H      -44.91990000     -31.37610000     -70.74360000
C      -42.70430000     -33.46180000     -70.49680000
H      -41.91920000     -32.79410000     -70.92690000
H      -43.34530000     -32.75300000     -69.95220000
C      -43.51860000     -34.12580000     -71.64530000
C      -43.30140000     -35.43480000     -72.07160000
C      -44.27790000     -33.36500000     -72.65390000
H      -42.84260000     -36.21950000     -71.44990000
C      -44.67260000     -34.16180000     -73.74130000
C      -44.98130000     -32.09060000     -72.67080000
C      -45.72550000     -31.97860000     -73.87050000
S      -44.22580000     -35.86660000     -73.41340000
S      -45.79470000     -33.42900000     -74.86360000
H      -46.22060000     -31.08300000     -74.13450000
