40
Properties=species:S:1:pos:R:3 #=T CELL(abcABC):=T 1.889726e+02=T 90.00000=T Traj:=T positionsangstrom=T Step:=T 0=T Bead:=T pbc="F F F"
C      -47.86360000     -33.56190000     -70.86720000
C      -47.36130000     -32.67960000     -69.89290000
C      -46.36440000     -33.09790000     -69.01390000
C      -45.90430000     -34.45380000     -69.01330000
C      -46.23770000     -35.25650000     -70.10100000
C      -47.17520000     -34.76670000     -71.02120000
H      -48.53680000     -33.12150000     -71.62070000
H      -46.02520000     -32.44680000     -68.20280000
H      -45.87210000     -36.22950000     -70.26720000
H      -47.45830000     -35.49960000     -71.84040000
C      -45.01270000     -34.94940000     -67.97620000
H      -45.61500000     -35.54250000     -67.21400000
H      -44.72070000     -34.06980000     -67.43680000
C      -47.82130000     -31.27610000     -69.81400000
H      -48.81340000     -31.23530000     -69.50890000
H      -47.30510000     -30.70890000     -69.06380000
S      -43.44270000     -35.71350000     -68.56100000
S      -47.74220000     -30.40960000     -71.45190000
C      -42.51410000     -34.29100000     -69.18450000
H      -42.23410000     -33.63490000     -68.29520000
H      -41.49820000     -34.74040000     -69.44410000
C      -46.02130000     -29.71990000     -71.62290000
H      -45.79710000     -29.05180000     -70.79640000
H      -46.06030000     -29.14930000     -72.48760000
C      -44.88710000     -30.78530000     -71.66160000
H      -43.87360000     -30.36070000     -71.55700000
H      -44.89790000     -31.35060000     -70.67860000
C      -43.02320000     -33.42160000     -70.28450000
H      -42.24000000     -32.69500000     -70.68260000
H      -43.72040000     -32.75080000     -69.84170000
C      -43.66790000     -33.99660000     -71.51200000
C      -43.50460000     -35.31830000     -71.84330000
C      -44.24410000     -33.15690000     -72.56610000
H      -43.21840000     -36.18510000     -71.27090000
C      -44.67790000     -34.01680000     -73.61100000
C      -44.84800000     -31.82780000     -72.71020000
C      -45.48500000     -31.65600000     -73.93460000
S      -44.17390000     -35.66040000     -73.43390000
S      -45.51530000     -33.09000000     -74.87310000
H      -45.99530000     -30.68630000     -74.23380000
