40
Properties=species:S:1:pos:R:3 #=T CELL(abcABC):=T 1.889726e+02=T 90.00000=T Traj:=T positionsangstrom=T Step:=T 0=T Bead:=T pbc="F F F"
C      -43.58160000     -36.12080000     -73.44800000
C      -42.87700000     -34.94480000     -73.08350000
C      -43.39380000     -33.77960000     -73.57200000
C      -44.51170000     -33.74860000     -74.46890000
C      -45.07960000     -34.89580000     -75.04830000
C      -44.54130000     -36.13800000     -74.53800000
H      -43.38110000     -37.11540000     -73.02970000
H      -42.94360000     -32.75030000     -73.33730000
H      -45.76420000     -34.83780000     -75.84230000
H      -44.86630000     -37.05740000     -74.93220000
C      -44.83140000     -32.41840000     -75.12410000
H      -45.08050000     -32.47200000     -76.24010000
H      -43.94820000     -31.80530000     -75.06400000
C      -41.67430000     -34.96720000     -72.13450000
H      -41.70660000     -35.81990000     -71.41590000
H      -40.82350000     -35.07740000     -72.83980000
S      -46.32000000     -31.43760000     -74.47200000
S      -41.34770000     -33.45270000     -71.01220000
C      -46.38790000     -31.52420000     -72.62010000
H      -45.41820000     -31.16150000     -72.24470000
H      -47.07360000     -30.68000000     -72.49300000
C      -42.70820000     -33.54740000     -69.74180000
H      -42.50030000     -32.61490000     -69.22920000
H      -42.54920000     -34.43640000     -69.09660000
C      -44.10920000     -33.50340000     -70.25290000
H      -44.21590000     -32.66290000     -70.98530000
H      -44.31440000     -34.42080000     -70.73790000
C      -46.90030000     -32.89290000     -72.13770000
H      -46.09230000     -33.59050000     -72.13100000
H      -47.65800000     -33.27900000     -72.81340000
C      -47.41970000     -32.91140000     -70.74650000
C      -48.74110000     -32.63630000     -70.45760000
C      -46.61640000     -33.04530000     -69.58540000
H      -49.54960000     -32.64080000     -71.17870000
C      -47.43180000     -33.04080000     -68.40110000
C      -45.22460000     -33.33760000     -69.20930000
C      -45.07650000     -33.59510000     -67.90150000
S      -49.08370000     -32.71250000     -68.77950000
S      -46.55760000     -33.44010000     -66.97240000
H      -44.15700000     -33.84890000     -67.43200000
