40
Properties=species:S:1:pos:R:3 #=T CELL(abcABC):=T 1.889726e+02=T 90.00000=T Traj:=T positionsangstrom=T Step:=T 0=T Bead:=T pbc="F F F"
C      -42.04830000     -31.08580000     -70.68820000
C      -42.22400000     -32.36010000     -71.36610000
C      -42.77320000     -32.36950000     -72.64960000
C      -43.11000000     -31.17330000     -73.28970000
C      -42.95670000     -29.96310000     -72.61850000
C      -42.38750000     -29.92230000     -71.36230000
H      -41.53540000     -31.00830000     -69.77720000
H      -42.80480000     -33.31220000     -73.15300000
H      -43.18930000     -29.00790000     -73.13130000
H      -42.32090000     -28.92420000     -70.90680000
C      -43.67800000     -31.44150000     -74.69620000
H      -43.35760000     -32.39920000     -75.00510000
H      -43.45460000     -30.70170000     -75.38160000
C      -41.85880000     -33.67010000     -70.66420000
H      -42.04360000     -34.50850000     -71.28590000
H      -40.83450000     -33.70780000     -70.41340000
S      -45.57600000     -31.36280000     -74.59550000
S      -42.68780000     -33.81170000     -69.04130000
C      -45.94760000     -32.84600000     -73.39200000
H      -45.96240000     -33.71410000     -74.13030000
H      -45.01220000     -32.91910000     -72.84850000
C      -44.11790000     -32.75270000     -69.01760000
H      -43.87900000     -31.69650000     -69.20290000
H      -44.63120000     -32.80050000     -68.08130000
C      -45.24620000     -32.94330000     -70.06060000
H      -45.92740000     -32.08770000     -70.08300000
H      -44.87640000     -33.12450000     -71.09400000
C      -47.22660000     -32.70610000     -72.57780000
H      -48.09670000     -32.41160000     -73.14760000
H      -47.05290000     -31.91820000     -71.73410000
C      -47.66700000     -34.00000000     -72.00540000
C      -48.91110000     -34.56510000     -72.33690000
C      -47.18130000     -34.54740000     -70.73310000
H      -49.40710000     -34.44570000     -73.30330000
C      -47.86040000     -35.68510000     -70.32310000
C      -46.15680000     -34.20390000     -69.78750000
C      -46.04620000     -35.14840000     -68.79510000
S      -49.26200000     -36.01080000     -71.32280000
S      -47.24840000     -36.42730000     -68.88760000
H      -45.24040000     -35.23180000     -68.07170000
