40
Properties=species:S:1:pos:R:3 #=T CELL(abcABC):=T 1.889726e+02=T 90.00000=T Traj:=T positionsangstrom=T Step:=T 0=T Bead:=T pbc="F F F"
C      -42.07450000     -32.19980000     -69.87570000
C      -43.01050000     -32.58430000     -68.89250000
C      -44.11160000     -31.72520000     -68.76330000
C      -44.15070000     -30.49240000     -69.48010000
C      -43.20550000     -30.21650000     -70.47000000
C      -42.15190000     -31.08430000     -70.75170000
H      -41.34760000     -32.96550000     -70.13060000
H      -44.77910000     -31.97850000     -67.97840000
H      -43.32890000     -29.26980000     -70.92280000
H      -41.40220000     -30.99790000     -71.56570000
C      -45.27710000     -29.51420000     -69.32410000
H      -44.93160000     -28.50000000     -69.63800000
H      -45.55730000     -29.27340000     -68.24150000
C      -42.94580000     -33.80270000     -68.00970000
H      -42.16050000     -33.69000000     -67.30220000
H      -43.93530000     -33.96320000     -67.55780000
S      -46.80810000     -29.88500000     -70.24880000
S      -42.81000000     -35.28100000     -69.10440000
C      -46.81950000     -31.64320000     -70.84930000
H      -46.21170000     -32.29670000     -70.12070000
H      -47.86430000     -31.97550000     -70.95590000
C      -44.25040000     -35.08490000     -70.18250000
H      -44.97980000     -34.35270000     -69.77890000
H      -44.76910000     -36.04160000     -70.03030000
C      -43.95990000     -34.90430000     -71.64450000
H      -43.55970000     -33.84900000     -71.87400000
H      -43.07830000     -35.42640000     -71.90380000
C      -46.15280000     -32.02720000     -72.20880000
H      -45.11550000     -32.11600000     -72.25650000
H      -46.37160000     -31.17230000     -72.90480000
C      -46.78350000     -33.22840000     -72.86030000
C      -47.88590000     -33.01900000     -73.66500000
C      -46.30630000     -34.59350000     -72.86820000
H      -48.52010000     -32.12960000     -73.64890000
C      -47.23070000     -35.38260000     -73.59720000
C      -45.16620000     -35.38550000     -72.48170000
C      -45.19740000     -36.64640000     -72.99470000
S      -48.58210000     -34.50240000     -74.24150000
S      -46.75410000     -37.02780000     -73.71040000
H      -44.53010000     -37.44790000     -72.64430000
