40
Properties=species:S:1:pos:R:3 #=T CELL(abcABC):=T 1.889726e+02=T 90.00000=T Traj:=T positionsangstrom=T Step:=T 0=T Bead:=T pbc="F F F"
C      -42.17000000     -32.23930000     -70.24230000
C      -43.07630000     -32.52340000     -69.24270000
C      -44.10690000     -31.58470000     -69.04630000
C      -44.24380000     -30.46300000     -69.80490000
C      -43.35180000     -30.24010000     -70.84720000
C      -42.25990000     -31.10270000     -71.01030000
H      -41.35850000     -33.03070000     -70.37890000
H      -44.77830000     -31.63790000     -68.20500000
H      -43.40650000     -29.27080000     -71.36070000
H      -41.53700000     -30.88410000     -71.78740000
C      -45.43850000     -29.52670000     -69.62790000
H      -45.00330000     -28.52370000     -69.63560000
H      -45.78750000     -29.57480000     -68.62670000
C      -42.93420000     -33.57080000     -68.19860000
H      -42.06830000     -33.38700000     -67.57370000
H      -43.89570000     -33.60630000     -67.62690000
S      -46.65200000     -29.66620000     -71.03310000
S      -42.72230000     -35.41410000     -68.81960000
C      -47.15890000     -31.39920000     -70.70540000
H      -47.23380000     -31.50150000     -69.63830000
H      -48.07300000     -31.67180000     -71.05840000
C      -44.36050000     -35.72650000     -69.73550000
H      -45.24790000     -35.41520000     -69.18800000
H      -44.39360000     -36.80550000     -69.77230000
C      -44.22370000     -35.24050000     -71.20250000
H      -44.02900000     -34.12540000     -71.26130000
H      -43.19650000     -35.65280000     -71.53660000
C      -46.14330000     -32.43880000     -71.28660000
H      -45.91330000     -33.16150000     -70.48750000
H      -45.10840000     -31.94860000     -71.49090000
C      -46.61130000     -33.27790000     -72.42200000
C      -47.57600000     -32.81600000     -73.26660000
C      -46.31750000     -34.72720000     -72.59750000
H      -47.99340000     -31.79430000     -73.21420000
C      -47.18910000     -35.29030000     -73.50780000
C      -45.35630000     -35.70010000     -72.12380000
C      -45.54250000     -36.97770000     -72.55260000
S      -48.25570000     -34.10790000     -74.23720000
S      -46.75920000     -36.94160000     -73.90940000
H      -44.95010000     -37.85650000     -72.38340000
