40
Properties=species:S:1:pos:R:3 #=T CELL(abcABC):=T 1.889726e+02=T 90.00000=T Traj:=T positionsangstrom=T Step:=T 0=T Bead:=T pbc="F F F"
C      -47.69840000     -33.60170000     -71.05060000
C      -47.37970000     -32.70850000     -70.03580000
C      -46.50570000     -33.14430000     -68.95240000
C      -45.99560000     -34.45910000     -68.95890000
C      -46.36920000     -35.33130000     -69.99100000
C      -47.27270000     -34.88420000     -70.95260000
H      -48.30360000     -33.36150000     -71.89480000
H      -46.19250000     -32.44190000     -68.25430000
H      -46.14380000     -36.41030000     -69.95970000
H      -47.51930000     -35.61290000     -71.71400000
C      -45.08130000     -34.90120000     -67.88530000
H      -45.54820000     -35.65850000     -67.35090000
H      -44.82180000     -34.10480000     -67.14330000
C      -47.90520000     -31.26660000     -70.05710000
H      -48.95550000     -31.19790000     -69.80020000
H      -47.38670000     -30.68750000     -69.33780000
S      -43.60730000     -35.75010000     -68.59130000
S      -47.62500000     -30.19850000     -71.56350000
C      -42.44060000     -34.46340000     -69.18240000
H      -42.08870000     -33.72610000     -68.42050000
H      -41.60160000     -34.99360000     -69.67530000
C      -45.88430000     -29.74950000     -71.47370000
H      -45.79640000     -29.12830000     -70.60540000
H      -45.48660000     -29.18660000     -72.32730000
C      -44.96630000     -30.95760000     -71.39080000
H      -43.93480000     -30.51430000     -71.54160000
H      -45.04380000     -31.44450000     -70.45830000
C      -43.11190000     -33.50750000     -70.14570000
H      -42.37460000     -32.68750000     -70.33280000
H      -43.94930000     -33.05550000     -69.53130000
C      -43.60430000     -34.03480000     -71.49840000
C      -43.29810000     -35.26210000     -72.03330000
C      -44.45540000     -33.27570000     -72.39430000
H      -42.68650000     -35.95280000     -71.47060000
C      -44.67330000     -33.99400000     -73.60060000
C      -45.10430000     -31.96600000     -72.54100000
C      -45.63240000     -31.66970000     -73.76170000
S      -43.82400000     -35.46650000     -73.65720000
S      -45.52070000     -33.05440000     -74.79980000
H      -46.38160000     -30.88830000     -73.97640000
