40
Properties=species:S:1:pos:R:3 #=T CELL(abcABC):=T 1.889726e+02=T 90.00000=T Traj:=T positionsangstrom=T Step:=T 0=T Bead:=T pbc="F F F"
C      -41.59670000     -31.69750000     -71.49870000
C      -42.43610000     -32.81510000     -71.68880000
C      -43.30550000     -32.70940000     -72.78610000
C      -43.47090000     -31.55070000     -73.54350000
C      -42.58200000     -30.49470000     -73.34820000
C      -41.73510000     -30.54280000     -72.23230000
H      -40.93240000     -31.71730000     -70.70810000
H      -44.00520000     -33.54800000     -73.08860000
H      -42.61250000     -29.60690000     -73.97170000
H      -40.92590000     -29.82980000     -72.05280000
C      -44.41840000     -31.58520000     -74.77900000
H      -44.44860000     -32.67900000     -75.18660000
H      -44.12320000     -30.86710000     -75.55260000
C      -42.35130000     -34.02010000     -70.81660000
H      -43.10090000     -34.74910000     -71.08890000
H      -41.35710000     -34.47310000     -70.86950000
S      -46.12030000     -31.20140000     -74.38600000
S      -42.54040000     -33.76180000     -68.95590000
C      -46.88100000     -32.75070000     -73.68830000
H      -47.59540000     -33.18650000     -74.30740000
H      -46.08010000     -33.45630000     -73.48910000
C      -43.83430000     -32.42610000     -68.88330000
H      -43.42160000     -31.43790000     -69.11650000
H      -44.24450000     -32.50460000     -67.84430000
C      -45.04800000     -32.66710000     -69.81200000
H      -45.77410000     -31.92570000     -69.44900000
H      -44.73810000     -32.47070000     -70.85120000
C      -47.46280000     -32.36770000     -72.35540000
H      -48.39370000     -31.95190000     -72.52910000
H      -46.81450000     -31.84460000     -71.70100000
C      -47.78910000     -33.64800000     -71.54220000
C      -48.92930000     -34.34280000     -71.84350000
C      -47.03050000     -34.31420000     -70.48830000
H      -49.60640000     -34.06040000     -72.69390000
C      -47.59170000     -35.53670000     -70.15070000
C      -45.84290000     -33.99290000     -69.69430000
C      -45.61410000     -34.97570000     -68.74850000
S      -49.04800000     -35.91840000     -71.01140000
S      -46.75870000     -36.29340000     -68.86690000
H      -44.98960000     -34.97880000     -67.89210000
