40
Properties=species:S:1:pos:R:3 #=T CELL(abcABC):=T 1.889726e+02=T 90.00000=T Traj:=T positionsangstrom=T Step:=T 0=T Bead:=T pbc="F F F"
C      -41.84870000     -31.41510000     -71.09970000
C      -42.37950000     -32.67070000     -71.53300000
C      -43.11740000     -32.77810000     -72.67490000
C      -43.36050000     -31.64390000     -73.46200000
C      -43.02400000     -30.37550000     -72.99710000
C      -42.12770000     -30.25770000     -71.89670000
H      -41.32240000     -31.31070000     -70.15400000
H      -43.40960000     -33.73470000     -73.05510000
H      -43.40360000     -29.55140000     -73.57380000
H      -41.75110000     -29.31510000     -71.45600000
C      -44.24140000     -31.89230000     -74.67950000
H      -44.35550000     -32.95720000     -74.98590000
H      -43.87230000     -31.36420000     -75.58530000
C      -42.01420000     -33.83640000     -70.71040000
H      -42.43920000     -34.71350000     -71.13830000
H      -40.94630000     -33.94840000     -70.75810000
S      -45.91060000     -31.22790000     -74.32450000
S      -42.60770000     -33.68840000     -68.97440000
C      -46.50460000     -32.77530000     -73.45770000
H      -47.00330000     -33.39010000     -74.17970000
H      -45.66840000     -33.27230000     -73.01950000
C      -43.94960000     -32.49470000     -68.96700000
H      -43.67100000     -31.42420000     -69.20130000
H      -44.37960000     -32.40360000     -67.98700000
C      -45.19150000     -32.68660000     -69.92250000
H      -45.75860000     -31.77570000     -69.81140000
H      -44.78110000     -32.59450000     -70.95340000
C      -47.40810000     -32.38150000     -72.31030000
H      -48.06530000     -31.58850000     -72.62080000
H      -46.72540000     -31.83160000     -71.61900000
C      -47.86040000     -33.77740000     -71.75400000
C      -48.88440000     -34.58190000     -72.22670000
C      -47.15820000     -34.31420000     -70.60120000
H      -49.49980000     -34.42350000     -73.16260000
C      -47.63670000     -35.58290000     -70.28070000
C      -46.08810000     -33.87260000     -69.72550000
C      -45.81920000     -34.83950000     -68.73820000
S      -48.88410000     -36.10040000     -71.37490000
S      -46.84180000     -36.28120000     -68.89890000
H      -44.93950000     -34.88740000     -68.19860000
