40
Properties=species:S:1:pos:R:3 #=T CELL(abcABC):=T 1.889726e+02=T 90.00000=T Traj:=T positionsangstrom=T Step:=T 0=T Bead:=T pbc="F F F"
C      -44.16580000     -29.31490000     -70.25500000
C      -43.56950000     -30.46710000     -70.82430000
C      -43.33700000     -31.63590000     -70.09100000
C      -43.55840000     -31.67630000     -68.73250000
C      -44.18340000     -30.52110000     -68.15610000
C      -44.48700000     -29.40410000     -68.87780000
H      -44.37130000     -28.44910000     -70.91360000
H      -42.90530000     -32.43850000     -70.63570000
H      -44.39340000     -30.64060000     -67.09390000
H      -45.10100000     -28.68420000     -68.40160000
C      -43.16600000     -32.81240000     -67.82550000
H      -43.61890000     -32.67670000     -66.78680000
H      -42.09170000     -32.73340000     -67.68820000
C      -43.08070000     -30.31920000     -72.24140000
H      -43.79800000     -29.75300000     -72.84670000
H      -42.16210000     -29.74570000     -72.39470000
S      -43.29750000     -34.54400000     -68.64240000
S      -42.80750000     -31.85260000     -73.13040000
C      -45.06480000     -34.63980000     -69.02460000
H      -45.56110000     -35.21600000     -68.22970000
H      -45.54800000     -33.63790000     -68.91200000
C      -44.45510000     -32.44880000     -73.40200000
H      -44.80960000     -32.09180000     -74.40640000
H      -45.20170000     -32.02760000     -72.64550000
C      -44.53070000     -34.06050000     -73.50300000
H      -44.03290000     -34.36190000     -74.43090000
H      -43.91330000     -34.53680000     -72.62350000
C      -45.16250000     -35.31930000     -70.42060000
H      -44.67180000     -36.33520000     -70.33200000
H      -44.43780000     -34.81060000     -71.08880000
C      -46.50750000     -35.28950000     -70.95470000
C      -47.63730000     -35.72900000     -70.35030000
C      -46.72260000     -35.03350000     -72.38020000
H      -47.70770000     -35.96750000     -69.24260000
C      -48.09100000     -35.12550000     -72.66540000
C      -45.97020000     -34.54280000     -73.52140000
C      -46.77510000     -34.40270000     -74.69550000
S      -49.04210000     -35.77540000     -71.38960000
S      -48.44370000     -34.78770000     -74.36020000
H      -46.39840000     -34.39700000     -75.75170000
