40
Properties=species:S:1:pos:R:3 #=T CELL(abcABC):=T 1.889726e+02=T 90.00000=T Traj:=T positionsangstrom=T Step:=T 0=T Bead:=T pbc="F F F"
C      -41.57830000     -31.76790000     -71.63540000
C      -42.48880000     -32.84070000     -71.83410000
C      -43.42730000     -32.70710000     -72.83930000
C      -43.48340000     -31.59040000     -73.69720000
C      -42.52100000     -30.62620000     -73.52220000
C      -41.47490000     -30.77570000     -72.58540000
H      -40.78690000     -31.76650000     -70.85680000
H      -43.93780000     -33.63890000     -73.06530000
H      -42.58550000     -29.75840000     -74.18870000
H      -40.76880000     -29.98150000     -72.34110000
C      -44.38510000     -31.50090000     -74.86820000
H      -44.40090000     -32.44800000     -75.38720000
H      -43.96620000     -30.86640000     -75.61030000
C      -42.47930000     -34.06950000     -70.98000000
H      -43.29760000     -34.74040000     -71.32680000
H      -41.57270000     -34.60640000     -71.12250000
S      -46.12100000     -31.08850000     -74.47830000
S      -42.51070000     -33.71070000     -69.12680000
C      -46.60570000     -32.56950000     -73.37290000
H      -47.26180000     -33.23690000     -73.99240000
H      -45.67260000     -33.14820000     -73.18760000
C      -43.94650000     -32.56340000     -68.81770000
H      -43.51630000     -31.60120000     -69.00500000
H      -44.06290000     -32.57210000     -67.69250000
C      -45.21540000     -32.69170000     -69.59400000
H      -45.90800000     -31.87720000     -69.31060000
H      -45.01230000     -32.48200000     -70.65040000
C      -47.36370000     -32.31680000     -72.05950000
H      -48.31460000     -31.75410000     -72.38420000
H      -46.84280000     -31.55100000     -71.45170000
C      -47.70380000     -33.63400000     -71.43970000
C      -48.68720000     -34.46040000     -71.98010000
C      -47.09060000     -34.29360000     -70.35170000
H      -49.39980000     -33.98000000     -72.63400000
C      -47.73220000     -35.46420000     -69.96330000
C      -45.93930000     -33.95660000     -69.50950000
C      -45.62040000     -34.97020000     -68.62000000
S      -49.13750000     -35.88610000     -71.02470000
S      -46.79350000     -36.36230000     -68.68730000
H      -44.92550000     -35.02620000     -67.84120000
