40
Properties=species:S:1:pos:R:3 #=T CELL(abcABC):=T 1.889726e+02=T 90.00000=T Traj:=T positionsangstrom=T Step:=T 0=T Bead:=T pbc="F F F"
C      -41.37750000     -31.99950000     -72.03410000
C      -42.23020000     -33.13830000     -72.16640000
C      -43.28420000     -33.17340000     -73.13000000
C      -43.43330000     -32.12580000     -74.03850000
C      -42.60330000     -31.01340000     -73.92170000
C      -41.61670000     -30.93680000     -72.87780000
H      -40.60960000     -31.97680000     -71.25490000
H      -43.84110000     -34.15210000     -73.13890000
H      -42.79750000     -30.12760000     -74.43990000
H      -41.26800000     -29.90190000     -72.70320000
C      -44.56820000     -32.16570000     -75.00180000
H      -44.85090000     -33.18200000     -75.26520000
H      -44.22190000     -31.71160000     -75.94550000
C      -42.18640000     -34.21630000     -71.12600000
H      -42.90920000     -34.95150000     -71.43320000
H      -41.24960000     -34.72800000     -71.01470000
S      -45.99430000     -31.19540000     -74.30540000
S      -42.51870000     -33.57760000     -69.37640000
C      -46.63630000     -32.68610000     -73.36960000
H      -47.06960000     -33.34170000     -74.14230000
H      -45.78650000     -33.17730000     -72.90540000
C      -43.82970000     -32.30210000     -69.46320000
H      -43.36930000     -31.46840000     -70.03810000
H      -43.74690000     -31.95330000     -68.40830000
C      -45.10970000     -32.60510000     -70.10780000
H      -45.75270000     -31.76040000     -69.89940000
H      -44.81500000     -32.69260000     -71.12820000
C      -47.64100000     -32.41650000     -72.20030000
H      -48.53930000     -32.07820000     -72.73100000
H      -47.32300000     -31.62150000     -71.64150000
C      -47.95820000     -33.66090000     -71.35320000
C      -49.11400000     -34.36890000     -71.51560000
C      -47.12930000     -34.14020000     -70.22290000
H      -49.83470000     -34.26210000     -72.28470000
C      -47.65780000     -35.26680000     -69.63220000
C      -45.89240000     -33.74950000     -69.56000000
C      -45.52470000     -34.55660000     -68.49480000
S      -49.20670000     -35.69560000     -70.33390000
S      -46.80760000     -35.85220000     -68.21970000
H      -44.77790000     -34.53510000     -67.75260000
