40
Properties=species:S:1:pos:R:3 #=T CELL(abcABC):=T 1.889726e+02=T 90.00000=T Traj:=T positionsangstrom=T Step:=T 0=T Bead:=T pbc="F F F"
C      -41.23230000     -32.32210000     -72.01960000
C      -42.39120000     -33.17510000     -72.05140000
C      -43.37730000     -33.01870000     -72.98430000
C      -43.38760000     -31.85000000     -73.81280000
C      -42.32220000     -30.96270000     -73.71930000
C      -41.20640000     -31.25230000     -72.91030000
H      -40.48110000     -32.47090000     -71.27380000
H      -44.11020000     -33.87560000     -73.14920000
H      -42.42010000     -29.97390000     -74.18630000
H      -40.46870000     -30.46390000     -72.95180000
C      -44.56490000     -31.59580000     -74.85020000
H      -44.81250000     -32.42720000     -75.54100000
H      -44.35410000     -30.74620000     -75.52170000
C      -42.61320000     -34.33440000     -71.13160000
H      -43.49930000     -34.90770000     -71.39010000
H      -41.72290000     -34.98740000     -71.16060000
S      -46.24450000     -31.22790000     -74.14500000
S      -42.52830000     -33.63970000     -69.35440000
C      -46.98280000     -32.80520000     -73.46720000
H      -47.53470000     -33.35970000     -74.22400000
H      -46.20820000     -33.46910000     -73.09260000
C      -43.73050000     -32.30260000     -69.31140000
H      -43.19590000     -31.44200000     -69.67460000
H      -43.87080000     -32.09220000     -68.19250000
C      -45.08770000     -32.40920000     -70.04310000
H      -45.52770000     -31.50310000     -69.73770000
H      -44.96030000     -32.46530000     -71.09520000
C      -47.90950000     -32.46330000     -72.31860000
H      -48.94510000     -32.26830000     -72.66250000
H      -47.57050000     -31.66560000     -71.69500000
C      -48.05280000     -33.60560000     -71.37090000
C      -49.13210000     -34.44300000     -71.51310000
C      -47.13940000     -34.05150000     -70.30250000
H      -49.82820000     -34.44930000     -72.29360000
C      -47.62860000     -35.21230000     -69.66180000
C      -45.90210000     -33.66990000     -69.72420000
C      -45.48910000     -34.44480000     -68.66560000
S      -49.08570000     -35.80800000     -70.42310000
S      -46.49320000     -35.89410000     -68.45390000
H      -44.59320000     -34.32550000     -68.06460000
