40
Properties=species:S:1:pos:R:3 #=T CELL(abcABC):=T 1.889726e+02=T 90.00000=T Traj:=T positionsangstrom=T Step:=T 0=T Bead:=T pbc="F F F"
C      -48.18320000     -34.28070000     -71.56230000
C      -48.19920000     -33.31550000     -70.52460000
C      -47.39820000     -33.56260000     -69.38840000
C      -46.68030000     -34.78320000     -69.24380000
C      -46.71240000     -35.68220000     -70.33250000
C      -47.42370000     -35.41010000     -71.42180000
H      -48.81790000     -34.02800000     -72.41510000
H      -47.52910000     -32.84260000     -68.56790000
H      -46.27730000     -36.69120000     -70.23570000
H      -47.54320000     -36.17650000     -72.20900000
C      -45.87270000     -35.07980000     -68.02420000
H      -46.19930000     -35.92820000     -67.46680000
H      -45.87970000     -34.18230000     -67.35150000
C      -48.80330000     -31.93690000     -70.63400000
H      -49.88730000     -32.01030000     -70.83360000
H      -48.68900000     -31.40570000     -69.71820000
S      -44.20660000     -35.62580000     -68.61620000
S      -48.34270000     -30.90890000     -72.13810000
C      -43.06700000     -34.15880000     -68.47720000
H      -43.17620000     -33.66420000     -67.51550000
H      -41.94770000     -34.47830000     -68.50120000
C      -46.67370000     -30.09250000     -71.43270000
H      -47.13920000     -29.56540000     -70.57910000
H      -46.24260000     -29.40710000     -72.20300000
C      -45.64540000     -31.21250000     -71.14560000
H      -44.87870000     -30.72280000     -70.47490000
H      -46.14430000     -32.02500000     -70.55340000
C      -43.30530000     -33.10200000     -69.53080000
H      -42.66800000     -32.22790000     -69.24100000
H      -44.31810000     -32.76310000     -69.47630000
C      -43.14900000     -33.52120000     -71.02100000
C      -42.21940000     -34.41310000     -71.45970000
C      -43.89440000     -32.94040000     -72.11270000
H      -41.54410000     -35.01930000     -70.94440000
C      -43.44330000     -33.39680000     -73.34930000
C      -44.99690000     -31.91380000     -72.34440000
C      -45.21490000     -31.69890000     -73.68010000
S      -42.16060000     -34.62130000     -73.21940000
S      -44.22060000     -32.72020000     -74.76730000
H      -45.97070000     -31.01310000     -74.02530000
