40
Properties=species:S:1:pos:R:3 #=T CELL(abcABC):=T 1.889726e+02=T 90.00000=T Traj:=T positionsangstrom=T Step:=T 0=T Bead:=T pbc="F F F"
C      -41.34040000     -32.37450000     -72.08660000
C      -42.50420000     -33.11710000     -72.05290000
C      -43.55340000     -32.82780000     -72.91010000
C      -43.52410000     -31.78360000     -73.84810000
C      -42.40400000     -30.87170000     -73.73840000
C      -41.24110000     -31.29940000     -73.02610000
H      -40.48480000     -32.78120000     -71.53740000
H      -44.40250000     -33.51350000     -72.94050000
H      -42.26870000     -29.98370000     -74.35170000
H      -40.33330000     -30.68500000     -73.14930000
C      -44.59200000     -31.56660000     -74.91470000
H      -44.64550000     -32.45870000     -75.56080000
H      -44.28950000     -30.74150000     -75.58330000
C      -42.53650000     -34.19620000     -71.09670000
H      -43.38180000     -34.90150000     -71.22890000
H      -41.57400000     -34.78060000     -71.16540000
S      -46.17260000     -31.06610000     -74.12600000
S      -42.52510000     -33.62760000     -69.36170000
C      -46.92740000     -32.56760000     -73.50560000
H      -47.76490000     -32.87380000     -74.19890000
H      -46.20830000     -33.40980000     -73.42490000
C      -43.66740000     -32.22990000     -69.37620000
H      -43.24010000     -31.45530000     -70.01570000
H      -43.87140000     -31.82090000     -68.40780000
C      -45.11540000     -32.53060000     -69.90880000
H      -45.80060000     -31.68570000     -69.54310000
H      -45.07740000     -32.43440000     -71.03600000
C      -47.60940000     -32.42800000     -72.09930000
H      -48.62460000     -31.90300000     -72.36480000
H      -46.99600000     -31.76510000     -71.46290000
C      -47.91000000     -33.69130000     -71.41110000
C      -49.02110000     -34.48630000     -71.60680000
C      -47.06280000     -34.24230000     -70.33320000
H      -49.77310000     -34.36120000     -72.29730000
C      -47.58430000     -35.41180000     -69.80200000
C      -45.81090000     -33.87690000     -69.65540000
C      -45.52130000     -34.65930000     -68.57690000
S      -49.09170000     -35.86190000     -70.46310000
S      -46.66830000     -35.94840000     -68.38120000
H      -44.66110000     -34.54100000     -67.96190000
