40
Properties=species:S:1:pos:R:3 #=T CELL(abcABC):=T 1.889726e+02=T 90.00000=T Traj:=T positionsangstrom=T Step:=T 0=T Bead:=T pbc="F F F"
C      -41.37960000     -32.09390000     -72.04040000
C      -42.44600000     -32.99810000     -72.08680000
C      -43.40170000     -32.91950000     -73.09690000
C      -43.49290000     -31.84970000     -74.01650000
C      -42.36020000     -31.02900000     -74.01640000
C      -41.34990000     -31.10950000     -73.03870000
H      -40.72820000     -32.24110000     -71.19030000
H      -44.26120000     -33.61570000     -73.14990000
H      -42.22930000     -30.19690000     -74.70900000
H      -40.64070000     -30.29980000     -73.10840000
C      -44.68420000     -31.55370000     -74.91880000
H      -44.96940000     -32.48010000     -75.44150000
H      -44.35010000     -30.85810000     -75.70760000
C      -42.50580000     -34.13910000     -71.06460000
H      -43.44080000     -34.69040000     -71.29890000
H      -41.68460000     -34.84210000     -71.25010000
S      -46.22290000     -30.90080000     -74.03410000
S      -42.53570000     -33.70680000     -69.29410000
C      -46.94330000     -32.50620000     -73.43220000
H      -47.69730000     -32.72100000     -74.18100000
H      -46.18690000     -33.25910000     -73.51380000
C      -43.80570000     -32.35890000     -69.13850000
H      -43.32180000     -31.45680000     -69.43470000
H      -44.12210000     -32.19270000     -68.08720000
C      -44.98860000     -32.72100000     -69.92210000
H      -45.69100000     -31.89040000     -69.95620000
H      -44.69260000     -32.86070000     -70.93650000
C      -47.55910000     -32.32410000     -72.03480000
H      -48.41650000     -31.73050000     -71.87970000
H      -46.78160000     -31.79120000     -71.44440000
C      -47.78440000     -33.67130000     -71.35020000
C      -48.87050000     -34.46450000     -71.69520000
C      -47.07990000     -34.20660000     -70.20950000
H      -49.66630000     -34.26210000     -72.45940000
C      -47.57520000     -35.46840000     -69.82200000
C      -45.86800000     -33.87580000     -69.47550000
C      -45.61110000     -34.72710000     -68.46390000
S      -48.99410000     -35.91960000     -70.69900000
S      -46.78000000     -36.03440000     -68.37350000
H      -44.75410000     -34.59970000     -67.79750000
