40
Properties=species:S:1:pos:R:3 #=T CELL(abcABC):=T 1.889726e+02=T 90.00000=T Traj:=T positionsangstrom=T Step:=T 0=T Bead:=T pbc="F F F"
C      -44.29720000     -29.43360000     -70.38800000
C      -43.41550000     -30.49210000     -70.83950000
C      -43.04530000     -31.49940000     -69.94300000
C      -43.54080000     -31.56450000     -68.62820000
C      -44.44480000     -30.53140000     -68.23040000
C      -44.78290000     -29.49270000     -69.09110000
H      -44.49830000     -28.69600000     -71.19060000
H      -42.35240000     -32.28170000     -70.38930000
H      -44.78210000     -30.47400000     -67.14990000
H      -45.31570000     -28.67900000     -68.68020000
C      -43.16800000     -32.69340000     -67.71290000
H      -43.84150000     -32.86530000     -66.89620000
H      -42.15960000     -32.43310000     -67.37610000
C      -42.86600000     -30.38800000     -72.23530000
H      -43.34580000     -29.60400000     -72.81900000
H      -41.77510000     -30.12610000     -72.06170000
S      -43.13470000     -34.29060000     -68.56870000
S      -42.73810000     -32.02840000     -73.25390000
C      -44.88010000     -34.43540000     -69.19770000
H      -45.49780000     -34.69000000     -68.34960000
H      -45.13380000     -33.40800000     -69.54170000
C      -44.62670000     -32.54650000     -73.29830000
H      -45.07890000     -31.82870000     -73.92000000
H      -45.09600000     -32.42270000     -72.31460000
C      -44.67560000     -34.00580000     -73.67990000
H      -44.17630000     -34.15100000     -74.63090000
H      -44.06670000     -34.54640000     -72.96130000
C      -45.04340000     -35.52990000     -70.37510000
H      -44.90170000     -36.53240000     -70.00200000
H      -44.28660000     -35.46950000     -71.15250000
C      -46.40930000     -35.42250000     -71.06960000
C      -47.53900000     -35.72870000     -70.34820000
C      -46.80270000     -35.02820000     -72.40450000
H      -47.57790000     -36.12830000     -69.33230000
C      -48.16640000     -35.09850000     -72.60480000
C      -46.12060000     -34.53180000     -73.56990000
C      -46.93570000     -34.43990000     -74.73280000
S      -49.06100000     -35.61830000     -71.20920000
S      -48.55430000     -34.97920000     -74.32860000
H      -46.58760000     -34.11230000     -75.71850000
