40
Properties=species:S:1:pos:R:3 #=T CELL(abcABC):=T 1.889726e+02=T 90.00000=T Traj:=T positionsangstrom=T Step:=T 0=T Bead:=T pbc="F F F"
C      -47.36170000     -33.83480000     -72.26000000
C      -47.60930000     -33.30170000     -70.98920000
C      -47.19520000     -33.97390000     -69.87020000
C      -46.45760000     -35.17390000     -69.95900000
C      -46.00500000     -35.60700000     -71.21810000
C      -46.54980000     -34.98830000     -72.32350000
H      -47.84430000     -33.25220000     -73.02530000
H      -47.43190000     -33.58330000     -68.88120000
H      -45.40560000     -36.52680000     -71.28300000
H      -46.21010000     -35.38700000     -73.33010000
C      -46.03400000     -35.91000000     -68.68760000
H      -46.29330000     -36.96790000     -68.66770000
H      -46.51820000     -35.50930000     -67.83320000
C      -48.50850000     -32.12190000     -70.87350000
H      -49.61860000     -32.38160000     -70.97320000
H      -48.48200000     -31.64940000     -69.95460000
S      -44.14350000     -35.84290000     -68.47170000
S      -48.24630000     -30.81290000     -72.15170000
C      -43.75720000     -34.04470000     -68.05180000
H      -44.44140000     -33.71170000     -67.25490000
H      -42.68540000     -33.98570000     -67.69010000
C      -46.77120000     -29.83960000     -71.59800000
H      -47.00320000     -29.10300000     -70.77200000
H      -46.48780000     -29.15550000     -72.36540000
C      -45.55610000     -30.66670000     -71.09210000
H      -44.75840000     -29.95160000     -70.76960000
H      -45.90100000     -31.19340000     -70.20370000
C      -43.82770000     -33.02890000     -69.25790000
H      -43.14410000     -32.17060000     -68.90050000
H      -44.76970000     -32.54160000     -69.31220000
C      -43.40270000     -33.38280000     -70.64560000
C      -42.66020000     -34.44470000     -70.97230000
C      -44.02600000     -32.76290000     -71.81620000
H      -42.20210000     -35.05570000     -70.26230000
C      -43.64140000     -33.36030000     -72.99660000
C      -45.00250000     -31.70060000     -72.07670000
C      -45.26340000     -31.52510000     -73.42250000
S      -42.57320000     -34.82700000     -72.68720000
S      -44.43190000     -32.74590000     -74.42620000
H      -45.80160000     -30.73660000     -73.87240000
