40
Properties=species:S:1:pos:R:3 #=T CELL(abcABC):=T 1.889726e+02=T 90.00000=T Traj:=T positionsangstrom=T Step:=T 0=T Bead:=T pbc="F F F"
C      -47.68210000     -34.66820000     -72.58310000
C      -48.13520000     -33.79290000     -71.62130000
C      -47.85640000     -34.11680000     -70.27480000
C      -46.96870000     -35.23470000     -69.94210000
C      -46.47400000     -36.03640000     -70.98620000
C      -46.87780000     -35.80580000     -72.32290000
H      -48.01420000     -34.39440000     -73.59030000
H      -48.22640000     -33.38130000     -69.56640000
H      -45.79270000     -36.83080000     -70.70920000
H      -46.63860000     -36.45430000     -73.08570000
C      -46.55510000     -35.40660000     -68.48700000
H      -47.26440000     -36.04810000     -68.07680000
H      -46.56720000     -34.49100000     -67.91890000
C      -48.96600000     -32.51710000     -71.88950000
H      -49.62670000     -32.94610000     -72.65040000
H      -49.36260000     -32.08410000     -71.00380000
S      -44.79560000     -36.00890000     -68.25060000
S      -47.92010000     -31.17340000     -72.62970000
C      -43.62890000     -34.60750000     -68.34600000
H      -43.29550000     -34.14550000     -67.36950000
H      -42.66070000     -35.04670000     -68.70970000
C      -47.09220000     -30.52020000     -71.11110000
H      -47.89720000     -30.58450000     -70.35770000
H      -46.84980000     -29.47560000     -71.34470000
C      -45.81440000     -31.22260000     -70.64150000
H      -45.53400000     -30.70970000     -69.71580000
H      -46.08160000     -32.24740000     -70.35320000
C      -44.09020000     -33.56330000     -69.32460000
H      -43.81540000     -32.53010000     -68.86130000
H      -45.18390000     -33.59340000     -69.38870000
C      -43.51480000     -33.62380000     -70.72420000
C      -42.62970000     -34.54870000     -71.22840000
C      -43.71490000     -32.54560000     -71.64720000
H      -42.17130000     -35.29400000     -70.58480000
C      -43.08220000     -32.70070000     -72.87640000
C      -44.63000000     -31.36190000     -71.60800000
C      -44.48260000     -30.57830000     -72.70550000
S      -42.17690000     -34.25800000     -72.84240000
S      -43.38370000     -31.37440000     -73.91220000
H      -45.02880000     -29.65940000     -72.81880000
