40
Properties=species:S:1:pos:R:3 #=T CELL(abcABC):=T 1.889726e+02=T 90.00000=T Traj:=T positionsangstrom=T Step:=T 0=T Bead:=T pbc="F F F"
C      -47.35030000     -33.86410000     -72.19210000
C      -47.71860000     -33.25000000     -71.00660000
C      -47.34140000     -33.89560000     -69.82210000
C      -46.61540000     -35.07270000     -69.72360000
C      -46.21690000     -35.67380000     -70.92250000
C      -46.56300000     -35.08960000     -72.17110000
H      -47.64430000     -33.46290000     -73.17400000
H      -47.74060000     -33.42460000     -68.89680000
H      -45.55350000     -36.56000000     -70.90500000
H      -46.13150000     -35.43890000     -73.07760000
C      -45.99110000     -35.57000000     -68.41060000
H      -46.27570000     -36.58770000     -68.18790000
H      -46.15100000     -34.87840000     -67.51150000
C      -48.62970000     -32.05840000     -70.85030000
H      -49.72530000     -32.44990000     -71.02900000
H      -48.56770000     -31.58920000     -69.88370000
S      -44.16020000     -35.76200000     -68.65850000
S      -48.22370000     -30.76680000     -72.12350000
C      -43.41330000     -34.07550000     -68.18650000
H      -43.85450000     -33.83720000     -67.24240000
H      -42.33460000     -34.19610000     -68.04430000
C      -46.69150000     -29.87910000     -71.44650000
H      -47.00600000     -29.18270000     -70.67180000
H      -46.31030000     -29.28410000     -72.31050000
C      -45.67650000     -30.95650000     -71.06030000
H      -44.83640000     -30.46930000     -70.52310000
H      -46.04170000     -31.59780000     -70.29900000
C      -43.83620000     -33.05210000     -69.20870000
H      -43.43640000     -32.10250000     -68.97420000
H      -44.91160000     -33.03900000     -69.18040000
C      -43.43840000     -33.39130000     -70.65140000
C      -42.59890000     -34.40430000     -70.99010000
C      -44.05210000     -32.79250000     -71.89210000
H      -42.17750000     -35.02960000     -70.25700000
C      -43.57880000     -33.41320000     -73.06790000
C      -45.07350000     -31.81330000     -72.16780000
C      -45.29670000     -31.62350000     -73.54330000
S      -42.45480000     -34.69420000     -72.78230000
S      -44.39760000     -32.88740000     -74.50290000
H      -45.95410000     -31.02320000     -74.17220000
