40
Properties=species:S:1:pos:R:3 #=T CELL(abcABC):=T 1.889726e+02=T 90.00000=T Traj:=T positionsangstrom=T Step:=T 0=T Bead:=T pbc="F F F"
C      -47.33140000     -33.87840000     -72.38320000
C      -47.57150000     -33.31360000     -71.04190000
C      -47.10570000     -34.05410000     -69.94150000
C      -46.27740000     -35.23740000     -70.15330000
C      -46.02060000     -35.67990000     -71.47200000
C      -46.58340000     -35.01830000     -72.58870000
H      -47.81400000     -33.25320000     -73.15760000
H      -47.30060000     -33.72100000     -68.92770000
H      -45.29770000     -36.44260000     -71.60400000
H      -46.38750000     -35.68350000     -73.51240000
C      -45.83150000     -35.96720000     -68.87380000
H      -46.09100000     -37.10110000     -68.94070000
H      -46.51580000     -35.50890000     -68.12100000
C      -48.44640000     -32.06260000     -70.87710000
H      -49.46890000     -32.33450000     -70.93050000
H      -48.17740000     -31.74510000     -69.77610000
S      -44.08720000     -35.89440000     -68.25550000
S      -48.20080000     -30.80000000     -72.19720000
C      -43.65060000     -34.15600000     -68.03140000
H      -44.20510000     -33.86090000     -67.16470000
H      -42.64320000     -34.12260000     -67.72450000
C      -46.80220000     -29.87800000     -71.53530000
H      -47.09950000     -29.22660000     -70.70770000
H      -46.52200000     -29.30590000     -72.41270000
C      -45.58190000     -30.67070000     -71.06160000
H      -44.81110000     -29.94810000     -70.80660000
H      -45.86130000     -31.16370000     -70.11030000
C      -44.00520000     -33.02520000     -69.10620000
H      -43.50370000     -32.08700000     -68.82960000
H      -45.04800000     -32.70220000     -69.08840000
C      -43.66690000     -33.44540000     -70.58560000
C      -42.83330000     -34.47480000     -70.89150000
C      -44.23390000     -32.82060000     -71.74260000
H      -42.07600000     -34.93460000     -70.27490000
C      -43.81210000     -33.38330000     -72.90990000
C      -45.04430000     -31.67820000     -72.10220000
C      -45.11590000     -31.39870000     -73.46370000
S      -42.65920000     -34.67790000     -72.65540000
S      -44.35630000     -32.65000000     -74.36690000
H      -45.69720000     -30.63230000     -73.83890000
