40
Properties=species:S:1:pos:R:3 #=T CELL(abcABC):=T 1.889726e+02=T 90.00000=T Traj:=T positionsangstrom=T Step:=T 0=T Bead:=T pbc="F F F"
C      -47.22820000     -34.07200000     -72.47990000
C      -47.76590000     -33.62260000     -71.29040000
C      -47.39990000     -34.20090000     -70.11400000
C      -46.51040000     -35.28080000     -70.09750000
C      -46.09410000     -35.85170000     -71.28160000
C      -46.39660000     -35.17810000     -72.50840000
H      -47.32250000     -33.60360000     -73.47110000
H      -47.65840000     -33.68250000     -69.15850000
H      -45.56080000     -36.91070000     -71.29530000
H      -45.91310000     -35.47570000     -73.40270000
C      -46.17200000     -35.93480000     -68.73410000
H      -46.51810000     -36.96330000     -68.80600000
H      -46.65310000     -35.53710000     -67.81280000
C      -48.61580000     -32.31680000     -71.11630000
H      -49.69150000     -32.48510000     -71.34860000
H      -48.67940000     -31.93570000     -70.14590000
S      -44.32900000     -35.94970000     -68.48490000
S      -48.08640000     -30.93450000     -72.20420000
C      -43.94170000     -34.14510000     -68.05340000
H      -44.64810000     -33.84160000     -67.34070000
H      -42.94620000     -34.21930000     -67.59470000
C      -46.81700000     -29.88500000     -71.24630000
H      -47.27680000     -29.52250000     -70.30920000
H      -46.56920000     -28.95400000     -71.73000000
C      -45.50540000     -30.62570000     -70.88700000
H      -44.80820000     -29.82120000     -70.52110000
H      -45.72390000     -31.32420000     -70.11130000
C      -43.94340000     -33.05310000     -69.13490000
H      -43.14850000     -32.26000000     -68.87000000
H      -44.93200000     -32.57960000     -69.11770000
C      -43.55650000     -33.39110000     -70.56670000
C      -42.84030000     -34.49840000     -70.92320000
C      -44.07560000     -32.67470000     -71.72140000
H      -42.30380000     -35.15540000     -70.21640000
C      -43.62480000     -33.25300000     -72.89420000
C      -44.79680000     -31.46210000     -71.97270000
C      -44.87460000     -31.11410000     -73.30990000
S      -42.66940000     -34.65790000     -72.69310000
S      -44.09400000     -32.30220000     -74.28160000
H      -45.21120000     -30.18870000     -73.78570000
