40
Properties=species:S:1:pos:R:3 #=T CELL(abcABC):=T 1.889726e+02=T 90.00000=T Traj:=T positionsangstrom=T Step:=T 0=T Bead:=T pbc="F F F"
C      -47.57020000     -34.57230000     -72.60800000
C      -47.95200000     -33.68870000     -71.59240000
C      -47.51440000     -33.91730000     -70.30330000
C      -46.74990000     -35.04890000     -69.94670000
C      -46.37600000     -35.92950000     -70.95060000
C      -46.84230000     -35.72930000     -72.26460000
H      -48.05840000     -34.33760000     -73.51970000
H      -47.87640000     -33.29100000     -69.50280000
H      -45.76380000     -36.81450000     -70.69440000
H      -46.56950000     -36.38230000     -73.04010000
C      -46.44590000     -35.33670000     -68.53230000
H      -47.21290000     -36.13320000     -68.22740000
H      -46.59700000     -34.51540000     -67.77830000
C      -48.93410000     -32.63360000     -71.80550000
H      -49.69570000     -32.80280000     -72.54560000
H      -49.59800000     -32.37570000     -70.91040000
S      -44.84070000     -36.18590000     -68.27860000
S      -48.22330000     -31.06690000     -72.51000000
C      -43.65130000     -34.72000000     -68.14960000
H      -43.77980000     -34.37110000     -67.16760000
H      -42.70230000     -35.23350000     -68.19470000
C      -47.07240000     -30.30910000     -71.23530000
H      -47.62640000     -29.95840000     -70.36850000
H      -46.77590000     -29.32590000     -71.63220000
C      -45.81780000     -31.01480000     -70.78470000
H      -45.33910000     -30.26340000     -70.18870000
H      -46.09660000     -31.86130000     -70.16280000
C      -43.81130000     -33.57040000     -69.15120000
H      -43.15140000     -32.79680000     -68.91160000
H      -44.81660000     -33.16010000     -68.85880000
C      -43.63000000     -33.63830000     -70.65350000
C      -42.72790000     -34.56000000     -71.15790000
C      -43.94980000     -32.61450000     -71.65140000
H      -42.27010000     -35.38390000     -70.59630000
C      -43.19150000     -32.79060000     -72.78830000
C      -44.79870000     -31.46350000     -71.83100000
C      -44.60150000     -30.90140000     -73.08190000
S      -42.18280000     -34.22020000     -72.82900000
S      -43.26840000     -31.52320000     -73.96500000
H      -45.13040000     -30.04480000     -73.46390000
