40
Properties=species:S:1:pos:R:3 #=T CELL(abcABC):=T 1.889726e+02=T 90.00000=T Traj:=T positionsangstrom=T Step:=T 0=T Bead:=T pbc="F F F"
C      -44.15890000     -30.31760000     -72.99630000
C      -43.82930000     -31.57100000     -73.63080000
C      -42.91780000     -32.43740000     -72.99800000
C      -42.33570000     -32.07490000     -71.76170000
C      -42.62340000     -30.82490000     -71.19190000
C      -43.46400000     -29.93410000     -71.87800000
H      -44.63620000     -29.54140000     -73.51470000
H      -42.67130000     -33.35890000     -73.53320000
H      -42.03470000     -30.41830000     -70.34190000
H      -43.73480000     -28.95920000     -71.46510000
C      -41.17600000     -32.94120000     -71.12450000
H      -40.39770000     -32.28950000     -70.63510000
H      -40.77070000     -33.59850000     -71.85320000
C      -44.57330000     -32.07870000     -74.87870000
H      -44.29660000     -31.52830000     -75.78370000
H      -44.24700000     -33.10270000     -75.00540000
S      -41.90440000     -34.12550000     -69.82590000
S      -46.46530000     -31.89720000     -74.80740000
C      -42.98310000     -35.30570000     -70.79450000
H      -42.53240000     -35.44510000     -71.77960000
H      -43.03310000     -36.31530000     -70.34250000
C      -47.06790000     -33.04520000     -73.51450000
H      -46.51490000     -33.98730000     -73.64550000
H      -48.15070000     -33.19490000     -73.61370000
C      -46.60800000     -32.45110000     -72.06930000
H      -45.47610000     -32.50380000     -71.94770000
H      -46.91680000     -31.34360000     -72.04630000
C      -44.38180000     -34.77760000     -71.17760000
H      -44.73080000     -35.21250000     -72.18270000
H      -44.23750000     -33.70380000     -71.29110000
C      -45.46590000     -34.98040000     -70.17650000
C      -45.47880000     -35.88370000     -69.15230000
C      -46.75380000     -34.32810000     -70.30500000
H      -44.73040000     -36.58520000     -68.88300000
C      -47.72500000     -34.90150000     -69.44200000
C      -47.32670000     -33.19210000     -71.01980000
C      -48.61310000     -32.84780000     -70.58420000
S      -47.12580000     -36.25940000     -68.52670000
S      -49.28590000     -34.09550000     -69.55080000
H      -49.26830000     -32.22220000     -71.25690000
