40
Properties=species:S:1:pos:R:3 #=T CELL(abcABC):=T 1.889726e+02=T 90.00000=T Traj:=T positionsangstrom=T Step:=T 0=T Bead:=T pbc="F F F"
C      -47.70010000     -34.58150000     -72.43560000
C      -47.83950000     -33.75970000     -71.27360000
C      -47.40670000     -34.27270000     -70.07860000
C      -46.87100000     -35.54220000     -69.95120000
C      -46.72630000     -36.31040000     -71.11910000
C      -47.05940000     -35.79120000     -72.36800000
H      -47.93040000     -34.32010000     -73.47780000
H      -47.46990000     -33.68000000     -69.16970000
H      -46.27880000     -37.37210000     -71.08890000
H      -46.99360000     -36.49730000     -73.30360000
C      -46.32190000     -36.06860000     -68.66240000
H      -46.50810000     -37.13250000     -68.53970000
H      -46.79160000     -35.54800000     -67.78310000
C      -48.67730000     -32.51050000     -71.38210000
H      -49.71310000     -32.66870000     -71.75310000
H      -48.75350000     -32.02310000     -70.41420000
S      -44.45620000     -35.92850000     -68.57310000
S      -47.92740000     -31.34540000     -72.59520000
C      -44.18980000     -34.15270000     -68.14420000
H      -44.86570000     -33.87880000     -67.20080000
H      -43.16180000     -33.97570000     -67.80550000
C      -47.11390000     -30.15020000     -71.49180000
H      -47.82460000     -29.83670000     -70.77210000
H      -46.99140000     -29.20730000     -71.98150000
C      -45.81500000     -30.68730000     -70.86880000
H      -45.34110000     -29.97410000     -70.18190000
H      -46.09360000     -31.48870000     -70.20490000
C      -44.47380000     -33.23160000     -69.29910000
H      -44.24460000     -32.19540000     -68.95130000
H      -45.53310000     -33.27920000     -69.50360000
C      -43.69360000     -33.44470000     -70.57090000
C      -42.77100000     -34.45740000     -70.90170000
C      -43.90660000     -32.45310000     -71.68160000
H      -42.54310000     -35.27630000     -70.22400000
C      -43.19080000     -32.85270000     -72.83880000
C      -44.75360000     -31.28520000     -71.81690000
C      -44.47990000     -30.69690000     -73.01730000
S      -42.20260000     -34.26960000     -72.58440000
S      -43.32760000     -31.54870000     -74.04560000
H      -45.03380000     -29.91180000     -73.53140000
