40
Properties=species:S:1:pos:R:3 #=T CELL(abcABC):=T 1.889726e+02=T 90.00000=T Traj:=T positionsangstrom=T Step:=T 0=T Bead:=T pbc="F F F"
C      -43.52870000     -30.57260000     -73.08120000
C      -43.08290000     -31.89930000     -73.42960000
C      -42.26340000     -32.64630000     -72.53680000
C      -41.98570000     -32.09570000     -71.22140000
C      -42.45970000     -30.83100000     -70.87230000
C      -43.20860000     -30.07230000     -71.81340000
H      -44.12330000     -30.01970000     -73.71250000
H      -41.86530000     -33.51510000     -72.85200000
H      -42.19950000     -30.35250000     -69.95790000
H      -43.54690000     -29.09380000     -71.56280000
C      -41.14710000     -32.82550000     -70.21100000
H      -40.35370000     -32.17850000     -69.71360000
H      -40.46760000     -33.55750000     -70.67360000
C      -43.51140000     -32.47310000     -74.71610000
H      -43.07080000     -32.03090000     -75.63640000
H      -43.20400000     -33.49510000     -74.82790000
S      -42.10810000     -33.70760000     -68.78830000
S      -45.34780000     -32.31230000     -74.99320000
C      -43.45430000     -34.48850000     -69.68370000
H      -43.14360000     -34.59320000     -70.72210000
H      -43.72750000     -35.41180000     -69.21520000
C      -46.04540000     -33.23310000     -73.59570000
H      -45.35800000     -33.78790000     -73.04270000
H      -46.81670000     -33.89630000     -73.93170000
C      -46.81480000     -32.37240000     -72.53790000
H      -46.10360000     -31.87490000     -71.83000000
H      -47.43520000     -31.68670000     -73.05350000
C      -44.78640000     -33.57800000     -69.77580000
H      -44.78330000     -32.99920000     -70.77350000
H      -44.79720000     -32.81310000     -68.94300000
C      -46.04720000     -34.41760000     -69.73700000
C      -46.20880000     -35.44070000     -68.90970000
C      -47.21080000     -34.22200000     -70.66980000
H      -45.46570000     -35.81440000     -68.22510000
C      -48.26200000     -35.07790000     -70.27020000
C      -47.69540000     -33.31530000     -71.67800000
C      -49.05340000     -33.45550000     -71.93670000
S      -47.85880000     -36.06370000     -68.92980000
S      -49.80870000     -34.72320000     -70.99720000
H      -49.58160000     -32.97640000     -72.76600000
