40
Properties=species:S:1:pos:R:3 #=T CELL(abcABC):=T 1.889726e+02=T 90.00000=T Traj:=T positionsangstrom=T Step:=T 0=T Bead:=T pbc="F F F"
C      -47.28270000     -34.74770000     -72.31560000
C      -47.80470000     -33.93010000     -71.26130000
C      -47.34350000     -33.93890000     -69.98420000
C      -46.22480000     -34.79640000     -69.69810000
C      -45.86840000     -35.74160000     -70.64370000
C      -46.30490000     -35.71710000     -71.95510000
H      -47.63370000     -34.55470000     -73.33960000
H      -47.72230000     -33.27240000     -69.16290000
H      -45.18010000     -36.53400000     -70.28240000
H      -45.96190000     -36.45620000     -72.62250000
C      -45.61060000     -34.91970000     -68.37640000
H      -45.82800000     -35.95110000     -68.08310000
H      -45.97840000     -34.22090000     -67.68540000
C      -48.93160000     -32.93300000     -71.62760000
H      -49.71380000     -33.50310000     -72.22550000
H      -49.40380000     -32.43660000     -70.75340000
S      -43.78950000     -35.03010000     -68.21860000
S      -48.48960000     -31.61260000     -72.84860000
C      -43.33210000     -33.20570000     -68.09370000
H      -43.88100000     -32.71880000     -67.21150000
H      -42.26550000     -33.29850000     -67.85030000
C      -47.49050000     -30.51010000     -71.59260000
H      -47.97830000     -30.38750000     -70.61950000
H      -47.50690000     -29.58320000     -72.11120000
C      -46.09140000     -31.02380000     -71.11760000
H      -45.64760000     -30.11110000     -70.55460000
H      -46.36700000     -31.72630000     -70.30380000
C      -43.66680000     -32.38560000     -69.27560000
H      -43.15920000     -31.42300000     -69.23740000
H      -44.71760000     -32.11990000     -69.26900000
C      -43.41180000     -33.07060000     -70.57830000
C      -42.40080000     -34.00590000     -70.85880000
C      -44.11330000     -32.65790000     -71.73330000
H      -41.63050000     -34.34790000     -70.19780000
C      -43.64310000     -33.31640000     -72.85160000
C      -45.23820000     -31.72050000     -72.11230000
C      -45.48440000     -31.75850000     -73.46270000
S      -42.36580000     -34.46660000     -72.56630000
S      -44.46600000     -32.82440000     -74.31140000
H      -46.13860000     -31.12140000     -74.04300000
