40
Properties=species:S:1:pos:R:3 #=T CELL(abcABC):=T 1.889726e+02=T 90.00000=T Traj:=T positionsangstrom=T Step:=T 0=T Bead:=T pbc="F F F"
C      -42.73990000     -31.51840000     -74.49100000
C      -42.80230000     -32.64080000     -73.66190000
C      -43.75910000     -33.66280000     -73.90550000
C      -44.49270000     -33.56130000     -75.11770000
C      -44.41160000     -32.46180000     -75.96340000
C      -43.64510000     -31.43600000     -75.54020000
H      -42.29980000     -30.58930000     -74.11960000
H      -43.74380000     -34.53030000     -73.28770000
H      -45.09310000     -32.41800000     -76.81220000
H      -43.67650000     -30.61390000     -76.27680000
C      -45.58970000     -34.55320000     -75.32830000
H      -45.23460000     -35.54820000     -75.11430000
H      -45.82840000     -34.57610000     -76.38990000
C      -41.90860000     -32.74330000     -72.39550000
H      -41.30630000     -33.65050000     -72.51670000
H      -41.25840000     -31.90350000     -72.30110000
S      -47.14340000     -34.16820000     -74.45450000
S      -42.78840000     -32.91700000     -70.84600000
C      -47.08380000     -34.99890000     -72.75230000
H      -48.09310000     -35.39900000     -72.63350000
H      -46.31240000     -35.81360000     -72.59220000
C      -43.72510000     -31.36470000     -70.81840000
H      -43.67650000     -30.90310000     -71.78570000
H      -43.12460000     -30.73040000     -70.13790000
C      -45.24050000     -31.38410000     -70.25300000
H      -45.38380000     -30.31400000     -70.02470000
H      -45.91520000     -31.59320000     -71.17910000
C      -46.77390000     -33.91330000     -71.68740000
H      -47.35000000     -32.98870000     -71.72110000
H      -45.70090000     -33.60810000     -71.80360000
C      -46.84130000     -34.35230000     -70.18640000
C      -47.65420000     -35.31640000     -69.72520000
C      -46.18030000     -33.63380000     -69.11390000
H      -48.37640000     -35.99260000     -70.21160000
C      -46.50230000     -34.13830000     -67.88680000
C      -45.44820000     -32.35880000     -69.03560000
C      -45.36830000     -31.88560000     -67.77950000
S      -47.49500000     -35.55310000     -67.95100000
S      -46.06570000     -33.01670000     -66.63110000
H      -45.02600000     -30.92610000     -67.40930000
