40
Properties=species:S:1:pos:R:3 #=T CELL(abcABC):=T 1.889726e+02=T 90.00000=T Traj:=T positionsangstrom=T Step:=T 0=T Bead:=T pbc="F F F"
C      -42.52570000     -31.63920000     -74.67730000
C      -42.67810000     -32.69990000     -73.72870000
C      -43.64650000     -33.66670000     -73.97110000
C      -44.57110000     -33.46900000     -75.03560000
C      -44.41910000     -32.40030000     -75.99820000
C      -43.35080000     -31.49350000     -75.78560000
H      -41.64040000     -31.01120000     -74.53240000
H      -43.96420000     -34.51130000     -73.31170000
H      -45.14060000     -32.17490000     -76.79590000
H      -43.16260000     -30.66150000     -76.38590000
C      -45.66940000     -34.46710000     -75.20290000
H      -45.29410000     -35.52430000     -75.00750000
H      -45.92770000     -34.40710000     -76.26750000
C      -41.88820000     -32.84040000     -72.49740000
H      -41.15010000     -33.71880000     -72.59550000
H      -41.23410000     -31.94270000     -72.47180000
S      -47.26370000     -34.07640000     -74.27810000
S      -42.85400000     -32.88930000     -70.90000000
C      -46.96960000     -35.02160000     -72.72340000
H      -47.95960000     -35.36170000     -72.56210000
H      -46.40880000     -35.93760000     -72.95250000
C      -43.69740000     -31.30300000     -70.61830000
H      -43.70000000     -30.70530000     -71.59060000
H      -43.08080000     -30.83260000     -69.85510000
C      -45.21480000     -31.38840000     -70.21710000
H      -45.61560000     -30.42410000     -69.97800000
H      -45.73270000     -31.71380000     -71.12010000
C      -46.37920000     -34.12640000     -71.62220000
H      -46.76310000     -33.12960000     -71.81760000
H      -45.29050000     -34.11090000     -71.78000000
C      -46.65970000     -34.46690000     -70.19320000
C      -47.28440000     -35.54940000     -69.71040000
C      -46.34970000     -33.50580000     -69.18480000
H      -47.70650000     -36.37610000     -70.39180000
C      -46.81400000     -33.95690000     -67.96280000
C      -45.57560000     -32.24140000     -69.02730000
C      -45.50830000     -31.84830000     -67.76180000
S      -47.66200000     -35.50930000     -67.99770000
S      -46.15830000     -33.07520000     -66.58410000
H      -44.96070000     -30.98210000     -67.51620000
