40
Properties=species:S:1:pos:R:3 #=T CELL(abcABC):=T 1.889726e+02=T 90.00000=T Traj:=T positionsangstrom=T Step:=T 0=T Bead:=T pbc="F F F"
C      -43.69160000     -30.07670000     -73.00140000
C      -43.50410000     -31.30880000     -73.60550000
C      -42.63370000     -32.29610000     -73.03850000
C      -42.00610000     -31.96160000     -71.81300000
C      -42.02080000     -30.69180000     -71.30850000
C      -42.89270000     -29.74680000     -71.90030000
H      -44.35380000     -29.28650000     -73.47120000
H      -42.49880000     -33.29390000     -73.44470000
H      -41.42100000     -30.40470000     -70.56810000
H      -43.01160000     -28.71080000     -71.52450000
C      -41.21920000     -33.01480000     -71.16680000
H      -40.42230000     -32.55580000     -70.56160000
H      -40.99010000     -33.77410000     -71.82050000
C      -44.22910000     -31.68630000     -74.89130000
H      -44.02660000     -30.90920000     -75.66570000
H      -43.86620000     -32.72100000     -75.23360000
S      -42.18530000     -33.86750000     -69.70710000
S      -46.07360000     -31.81020000     -74.77840000
C      -43.25070000     -35.23020000     -70.59570000
H      -42.70960000     -35.65340000     -71.40820000
H      -43.30270000     -36.08790000     -69.89740000
C      -46.41870000     -33.26630000     -73.53390000
H      -45.55700000     -33.87860000     -73.34020000
H      -47.19310000     -33.85690000     -74.01880000
C      -46.94850000     -32.73260000     -72.27470000
H      -46.11550000     -32.30210000     -71.64110000
H      -47.56800000     -31.81700000     -72.50500000
C      -44.59850000     -34.68460000     -71.00400000
H      -44.72440000     -35.26600000     -71.89660000
H      -44.47050000     -33.63710000     -71.34400000
C      -45.75240000     -35.01680000     -70.08120000
C      -45.69020000     -35.82740000     -69.02040000
C      -47.15530000     -34.67810000     -70.46180000
H      -44.80120000     -36.32250000     -68.69090000
C      -48.01860000     -35.15130000     -69.54680000
C      -47.68800000     -33.62950000     -71.33910000
C      -49.04990000     -33.57540000     -71.09170000
S      -47.22110000     -36.00400000     -68.22730000
S      -49.61760000     -34.43700000     -69.64640000
H      -49.80100000     -32.94100000     -71.60750000
