40
Properties=species:S:1:pos:R:3 #=T CELL(abcABC):=T 1.889726e+02=T 90.00000=T Traj:=T positionsangstrom=T Step:=T 0=T Bead:=T pbc="F F F"
C      -47.32760000     -34.97470000     -70.77030000
C      -47.60660000     -33.78190000     -70.12160000
C      -46.73850000     -33.33940000     -69.06690000
C      -45.58010000     -34.18600000     -68.78060000
C      -45.29120000     -35.31980000     -69.57590000
C      -46.22250000     -35.69960000     -70.52580000
H      -48.03660000     -35.23040000     -71.53990000
H      -46.90100000     -32.44900000     -68.55150000
H      -44.35040000     -35.84560000     -69.50320000
H      -46.06970000     -36.57670000     -71.15210000
C      -44.65640000     -33.70740000     -67.73060000
H      -44.68550000     -34.46240000     -66.91280000
H      -44.78840000     -32.71170000     -67.39110000
C      -48.88540000     -33.05840000     -70.34720000
H      -49.71490000     -33.77230000     -70.20370000
H      -49.07710000     -32.25530000     -69.62720000
S      -42.94130000     -33.77440000     -68.40340000
S      -49.05400000     -32.37760000     -72.04270000
C      -42.79800000     -32.03090000     -69.10860000
H      -43.10430000     -31.26160000     -68.34320000
H      -41.74400000     -31.88390000     -69.32830000
C      -47.81640000     -30.99290000     -72.30340000
H      -48.12550000     -30.04150000     -71.76940000
H      -48.01820000     -30.79110000     -73.40710000
C      -46.37530000     -31.28530000     -71.98690000
H      -45.83070000     -30.37750000     -72.08920000
H      -46.31230000     -31.59220000     -70.87330000
C      -43.52820000     -31.72690000     -70.42500000
H      -43.10840000     -30.77740000     -70.82490000
H      -44.58950000     -31.44390000     -70.15020000
C      -43.42330000     -32.74610000     -71.49860000
C      -42.33840000     -33.58420000     -71.66820000
C      -44.45430000     -32.95210000     -72.49090000
H      -41.42140000     -33.58980000     -71.04270000
C      -44.08180000     -33.97360000     -73.36910000
C      -45.71080000     -32.39020000     -72.80140000
C      -46.17330000     -32.86820000     -73.99600000
S      -42.48400000     -34.55560000     -73.08460000
S      -45.21490000     -34.08030000     -74.72390000
H      -47.00500000     -32.52220000     -74.56390000
