40
Properties=species:S:1:pos:R:3 #=T CELL(abcABC):=T 1.889726e+02=T 90.00000=T Traj:=T positionsangstrom=T Step:=T 0=T Bead:=T pbc="F F F"
C      -47.46900000     -35.12130000     -70.86190000
C      -47.67330000     -33.91130000     -70.14470000
C      -46.78800000     -33.42770000     -69.17040000
C      -45.52660000     -34.10800000     -69.02420000
C      -45.40120000     -35.35400000     -69.64180000
C      -46.38380000     -35.88160000     -70.46320000
H      -48.26080000     -35.55930000     -71.60020000
H      -47.15480000     -32.70600000     -68.46860000
H      -44.44700000     -35.96440000     -69.41330000
H      -46.23240000     -36.92580000     -70.75260000
C      -44.56290000     -33.59390000     -68.03760000
H      -44.57800000     -34.24880000     -67.12590000
H      -44.89960000     -32.66570000     -67.64620000
C      -48.93560000     -33.03690000     -70.33700000
H      -49.79550000     -33.69460000     -70.19030000
H      -49.00840000     -32.20310000     -69.66090000
S      -42.69770000     -33.56920000     -68.48160000
S      -49.07650000     -32.31170000     -72.02100000
C      -42.49080000     -31.91640000     -69.33670000
H      -42.63130000     -31.20000000     -68.51720000
H      -41.42920000     -31.94560000     -69.51530000
C      -47.90230000     -30.97630000     -72.00090000
H      -48.08940000     -30.30360000     -71.16450000
H      -48.01940000     -30.46750000     -72.92360000
C      -46.44090000     -31.38280000     -71.79370000
H      -45.86690000     -30.46210000     -71.86700000
H      -46.36800000     -31.72060000     -70.76550000
C      -43.41530000     -31.59200000     -70.47500000
H      -43.19710000     -30.61420000     -70.89410000
H      -44.44560000     -31.58660000     -70.11470000
C      -43.35230000     -32.68500000     -71.51540000
C      -42.27870000     -33.54910000     -71.66730000
C      -44.43110000     -32.87510000     -72.50570000
H      -41.35170000     -33.56720000     -71.12380000
C      -44.10310000     -33.92010000     -73.37150000
C      -45.76170000     -32.40510000     -72.71980000
C      -46.36100000     -32.97140000     -73.80590000
S      -42.55820000     -34.62500000     -73.04400000
S      -45.25240000     -34.21450000     -74.63590000
H      -47.37990000     -32.81940000     -74.18010000
