40
Properties=species:S:1:pos:R:3 #=T CELL(abcABC):=T 1.889726e+02=T 90.00000=T Traj:=T positionsangstrom=T Step:=T 0=T Bead:=T pbc="F F F"
C      -47.31260000     -34.83180000     -70.75680000
C      -47.53630000     -33.66690000     -69.94840000
C      -46.51820000     -33.21300000     -69.15980000
C      -45.42230000     -33.97500000     -68.92570000
C      -45.13610000     -35.16320000     -69.66020000
C      -46.03750000     -35.52500000     -70.68430000
H      -48.11960000     -35.20330000     -71.29680000
H      -46.66100000     -32.33720000     -68.55130000
H      -44.28460000     -35.75500000     -69.54320000
H      -45.83430000     -36.31420000     -71.40890000
C      -44.40020000     -33.48130000     -67.87270000
H      -44.25870000     -34.19930000     -67.02860000
H      -44.61250000     -32.52240000     -67.34420000
C      -48.87670000     -33.06620000     -70.17860000
H      -49.72510000     -33.77430000     -69.98050000
H      -48.92900000     -32.22590000     -69.48830000
S      -42.69030000     -33.37740000     -68.56160000
S      -49.16100000     -32.56430000     -71.96490000
C      -42.53830000     -31.67100000     -69.39870000
H      -42.80160000     -30.91530000     -68.64040000
H      -41.50830000     -31.63750000     -69.65200000
C      -47.97790000     -31.08420000     -72.27050000
H      -48.34940000     -30.29110000     -71.63870000
H      -48.12660000     -30.75600000     -73.32420000
C      -46.42890000     -31.30950000     -72.09530000
H      -45.86350000     -30.36560000     -72.32020000
H      -46.34730000     -31.41210000     -70.95060000
C      -43.37490000     -31.52510000     -70.65470000
H      -43.05130000     -30.56280000     -71.16540000
H      -44.45120000     -31.39520000     -70.47630000
C      -43.39870000     -32.68160000     -71.64890000
C      -42.24860000     -33.41420000     -71.86840000
C      -44.51560000     -33.08570000     -72.43380000
H      -41.27940000     -33.27190000     -71.43120000
C      -44.23230000     -34.17470000     -73.26610000
C      -45.86230000     -32.53270000     -72.75580000
C      -46.47380000     -33.20700000     -73.77080000
S      -42.60250000     -34.70690000     -72.99580000
S      -45.54740000     -34.56710000     -74.40480000
H      -47.45510000     -33.06530000     -74.12730000
