40
Properties=species:S:1:pos:R:3 #=T CELL(abcABC):=T 1.889726e+02=T 90.00000=T Traj:=T positionsangstrom=T Step:=T 0=T Bead:=T pbc="F F F"
C      -47.40470000     -34.86430000     -70.88390000
C      -47.67590000     -33.74450000     -70.10360000
C      -46.81130000     -33.49840000     -68.97630000
C      -45.70650000     -34.38610000     -68.70120000
C      -45.41350000     -35.42320000     -69.64540000
C      -46.27450000     -35.63500000     -70.68230000
H      -48.01800000     -35.07520000     -71.68790000
H      -46.86560000     -32.57840000     -68.44580000
H      -44.59070000     -36.00170000     -69.44940000
H      -46.08620000     -36.38570000     -71.39420000
C      -44.68120000     -33.89080000     -67.63190000
H      -44.76280000     -34.45600000     -66.75040000
H      -44.94220000     -32.83590000     -67.30270000
C      -48.79610000     -32.80430000     -70.48910000
H      -49.70810000     -33.28240000     -70.16770000
H      -48.79620000     -31.85500000     -69.85520000
S      -42.82580000     -33.74310000     -68.11820000
S      -49.03790000     -32.42910000     -72.26330000
C      -42.74380000     -32.09040000     -68.98460000
H      -43.00980000     -31.32130000     -68.29270000
H      -41.64890000     -31.97570000     -69.22840000
C      -47.81150000     -30.94060000     -72.40060000
H      -48.16160000     -30.32860000     -71.62270000
H      -47.89860000     -30.54680000     -73.38470000
C      -46.38500000     -31.27400000     -72.03420000
H      -45.74830000     -30.36520000     -72.16570000
H      -46.36020000     -31.49650000     -70.97230000
C      -43.73290000     -31.99410000     -70.15170000
H      -43.83810000     -30.92300000     -70.28680000
H      -44.71340000     -32.25510000     -69.79700000
C      -43.45430000     -32.78690000     -71.38850000
C      -42.35990000     -33.59940000     -71.60380000
C      -44.40510000     -32.92730000     -72.52490000
H      -41.55600000     -33.78400000     -70.85710000
C      -43.95960000     -33.78670000     -73.52840000
C      -45.72640000     -32.34730000     -72.81030000
C      -46.23760000     -32.81160000     -73.98230000
S      -42.45050000     -34.51240000     -73.14180000
S      -45.13510000     -34.02230000     -74.78470000
H      -47.15810000     -32.46610000     -74.43960000
