40
Properties=species:S:1:pos:R:3 #=T CELL(abcABC):=T 1.889726e+02=T 90.00000=T Traj:=T positionsangstrom=T Step:=T 0=T Bead:=T pbc="F F F"
C      -44.00050000     -31.16810000     -74.55510000
C      -43.59420000     -32.46960000     -74.33720000
C      -44.52070000     -33.46980000     -74.49440000
C      -45.83500000     -33.26250000     -74.72640000
C      -46.28480000     -31.90170000     -74.82100000
C      -45.32490000     -30.86750000     -74.74120000
H      -43.29070000     -30.32490000     -74.37070000
H      -44.21810000     -34.45470000     -74.34510000
H      -47.28690000     -31.55520000     -75.05230000
H      -45.54020000     -29.75680000     -74.78180000
C      -46.89580000     -34.42700000     -74.76690000
H      -46.37420000     -35.38410000     -74.66450000
H      -47.41770000     -34.44100000     -75.73560000
C      -42.12150000     -32.71480000     -73.96950000
H      -41.83100000     -33.51880000     -74.67650000
H      -41.44290000     -31.86940000     -74.13190000
S      -48.22360000     -34.27210000     -73.54980000
S      -41.89030000     -33.24960000     -72.19340000
C      -47.19570000     -34.37540000     -71.98970000
H      -47.38330000     -35.38190000     -71.54430000
H      -46.13160000     -34.36830000     -72.22210000
C      -42.89600000     -32.04520000     -71.18880000
H      -42.87930000     -31.16450000     -71.85890000
H      -42.35690000     -31.57030000     -70.32510000
C      -44.33680000     -32.41070000     -70.87900000
H      -44.82570000     -31.42130000     -70.59830000
H      -45.03330000     -32.61340000     -71.70960000
C      -47.71980000     -33.36470000     -71.01680000
H      -48.76910000     -33.30180000     -71.03490000
H      -47.21450000     -32.43740000     -71.35980000
C      -47.19880000     -33.67140000     -69.60510000
C      -48.05600000     -34.07570000     -68.62440000
C      -45.80310000     -33.68570000     -69.13690000
H      -49.13310000     -34.24110000     -68.80860000
C      -45.62960000     -34.07830000     -67.80220000
C      -44.55770000     -33.20480000     -69.64610000
C      -43.50490000     -33.39290000     -68.76040000
S      -47.16890000     -34.52000000     -67.11960000
S      -44.02510000     -34.15030000     -67.24080000
H      -42.50900000     -33.15700000     -68.99160000
