40
Properties=species:S:1:pos:R:3 #=T CELL(abcABC):=T 1.889726e+02=T 90.00000=T Traj:=T positionsangstrom=T Step:=T 0=T Bead:=T pbc="F F F"
C      -47.03720000     -35.13630000     -69.62120000
C      -47.40110000     -33.83270000     -69.46330000
C      -46.51680000     -32.98050000     -68.73770000
C      -45.22250000     -33.38490000     -68.49290000
C      -44.89030000     -34.75310000     -68.60650000
C      -45.82680000     -35.68400000     -69.09340000
H      -47.70690000     -35.84630000     -70.11150000
H      -46.71570000     -31.93470000     -68.53680000
H      -43.93470000     -34.97480000     -68.14400000
H      -45.64920000     -36.72010000     -69.10930000
C      -44.22020000     -32.40360000     -67.88100000
H      -44.12330000     -32.46520000     -66.78680000
H      -44.54760000     -31.37040000     -68.04170000
C      -48.84540000     -33.40760000     -69.88600000
H      -49.45060000     -34.25030000     -69.65450000
H      -49.16130000     -32.46980000     -69.44960000
S      -42.51830000     -32.57470000     -68.56190000
S      -48.83330000     -33.35980000     -71.73500000
C      -42.44570000     -31.52640000     -70.06050000
H      -42.40630000     -30.50560000     -69.80260000
H      -41.47200000     -31.74750000     -70.53420000
C      -48.24150000     -31.72600000     -72.19990000
H      -48.67050000     -31.06220000     -71.47560000
H      -48.77490000     -31.51800000     -73.16040000
C      -46.72490000     -31.57460000     -72.18570000
H      -46.40930000     -30.52880000     -72.41410000
H      -46.39590000     -31.64350000     -71.15410000
C      -43.57890000     -31.55180000     -71.11200000
H      -43.33760000     -30.72200000     -71.74570000
H      -44.53080000     -31.40210000     -70.65300000
C      -43.57850000     -32.73450000     -72.03220000
C      -42.50300000     -33.54210000     -72.30160000
C      -44.63560000     -33.08130000     -72.93380000
H      -41.50830000     -33.54430000     -71.94980000
C      -44.33370000     -34.16450000     -73.77330000
C      -46.02870000     -32.60110000     -73.06370000
C      -46.59620000     -33.21860000     -74.12770000
S      -42.75530000     -34.81600000     -73.52380000
S      -45.74640000     -34.59030000     -74.80560000
H      -47.56450000     -32.94930000     -74.57410000
