40
Properties=species:S:1:pos:R:3 #=T CELL(abcABC):=T 1.889726e+02=T 90.00000=T Traj:=T positionsangstrom=T Step:=T 0=T Bead:=T pbc="F F F"
C      -43.81920000     -31.30190000     -74.31360000
C      -43.44850000     -32.62050000     -74.20450000
C      -44.44000000     -33.61250000     -74.33520000
C      -45.71520000     -33.26550000     -74.71160000
C      -46.10090000     -31.89900000     -74.75060000
C      -45.15940000     -30.93050000     -74.58180000
H      -43.07380000     -30.53650000     -74.21050000
H      -44.09230000     -34.59560000     -74.28870000
H      -47.08230000     -31.65100000     -75.05740000
H      -45.52220000     -29.90830000     -74.62150000
C      -46.75670000     -34.34970000     -75.00320000
H      -46.43510000     -35.35850000     -75.30150000
H      -47.33220000     -34.06100000     -75.89300000
C      -42.08810000     -33.04150000     -73.81540000
H      -41.64870000     -34.02820000     -74.15070000
H      -41.41940000     -32.19600000     -74.05530000
S      -48.10290000     -34.53820000     -73.78090000
S      -42.09040000     -33.28850000     -71.86310000
C      -47.13380000     -34.75180000     -72.17590000
H      -47.49540000     -35.67120000     -71.65310000
H      -46.12960000     -34.90300000     -72.54350000
C      -42.99110000     -31.72200000     -71.22630000
H      -43.01580000     -30.92960000     -71.96620000
H      -42.31800000     -31.37650000     -70.38660000
C      -44.35810000     -32.11580000     -70.80750000
H      -44.96870000     -31.20760000     -70.76340000
H      -44.72590000     -32.68510000     -71.63410000
C      -47.39120000     -33.47400000     -71.26830000
H      -48.53490000     -33.38050000     -71.36120000
H      -46.87460000     -32.60860000     -71.78910000
C      -46.98590000     -33.75570000     -69.81850000
C      -47.96370000     -34.38550000     -69.01750000
C      -45.78830000     -33.49880000     -69.14450000
H      -48.92840000     -34.77120000     -69.31210000
C      -45.79850000     -33.99990000     -67.84120000
C      -44.53680000     -32.82130000     -69.51170000
C      -43.57170000     -33.00510000     -68.47840000
S      -47.41430000     -34.60090000     -67.40220000
S      -44.28440000     -33.72670000     -67.04410000
H      -42.48180000     -32.71000000     -68.31030000
