40
Properties=species:S:1:pos:R:3 #=T CELL(abcABC):=T 1.889726e+02=T 90.00000=T Traj:=T positionsangstrom=T Step:=T 0=T Bead:=T pbc="F F F"
C      -44.11820000     -31.05830000     -74.52710000
C      -43.63800000     -32.41120000     -74.46660000
C      -44.54820000     -33.43860000     -74.52150000
C      -45.91440000     -33.25980000     -74.69940000
C      -46.34500000     -31.93500000     -74.82590000
C      -45.44770000     -30.83740000     -74.79910000
H      -43.47060000     -30.23880000     -74.59420000
H      -44.14750000     -34.40770000     -74.55530000
H      -47.41640000     -31.80680000     -74.70210000
H      -45.79130000     -29.86540000     -74.97500000
C      -46.89060000     -34.40240000     -74.77320000
H      -46.37650000     -35.33810000     -74.53460000
H      -47.41490000     -34.40010000     -75.72630000
C      -42.19010000     -32.78260000     -74.16550000
H      -41.92160000     -33.66610000     -74.76760000
H      -41.48130000     -32.00260000     -74.27710000
S      -48.27700000     -34.11070000     -73.47380000
S      -42.03470000     -33.12180000     -72.29160000
C      -47.61710000     -34.60070000     -71.84620000
H      -48.44160000     -35.25190000     -71.52000000
H      -46.66460000     -35.11870000     -71.86060000
C      -43.00390000     -31.79870000     -71.43920000
H      -43.25320000     -31.09640000     -72.21110000
H      -42.44280000     -31.36750000     -70.66330000
C      -44.27880000     -32.53470000     -70.91640000
H      -45.02310000     -31.77160000     -70.82100000
H      -44.57230000     -33.26120000     -71.65840000
C      -47.50880000     -33.29900000     -70.95360000
H      -48.43740000     -32.67450000     -71.16310000
H      -46.85590000     -32.63600000     -71.38670000
C      -47.07920000     -33.59480000     -69.50200000
C      -47.93230000     -33.93710000     -68.52640000
C      -45.65570000     -33.66280000     -69.10420000
H      -49.02790000     -34.02520000     -68.69040000
C      -45.52350000     -34.16770000     -67.78060000
C      -44.33580000     -33.23810000     -69.54440000
C      -43.30870000     -33.60130000     -68.68170000
S      -47.12070000     -34.49540000     -67.05020000
S      -43.88560000     -34.43240000     -67.26110000
H      -42.24530000     -33.34270000     -68.81680000
