40
Properties=species:S:1:pos:R:3 #=T CELL(abcABC):=T 1.889726e+02=T 90.00000=T Traj:=T positionsangstrom=T Step:=T 0=T Bead:=T pbc="F F F"
C      -44.31180000     -30.98010000     -74.62120000
C      -43.83650000     -32.25750000     -74.30540000
C      -44.80390000     -33.26270000     -74.18340000
C      -46.15670000     -33.04430000     -74.39480000
C      -46.62130000     -31.78620000     -74.83870000
C      -45.67290000     -30.72520000     -74.81340000
H      -43.54530000     -30.29130000     -74.84290000
H      -44.53820000     -34.28660000     -73.99310000
H      -47.64910000     -31.53640000     -74.83380000
H      -45.99260000     -29.73830000     -75.03690000
C      -47.14880000     -34.24420000     -74.33860000
H      -46.56410000     -35.17510000     -74.06950000
H      -47.61820000     -34.41310000     -75.33370000
C      -42.27940000     -32.49840000     -74.23400000
H      -42.00990000     -33.29450000     -74.99110000
H      -41.78660000     -31.57280000     -74.56340000
S      -48.49530000     -33.90620000     -73.19420000
S      -41.75840000     -33.11640000     -72.61910000
C      -47.65430000     -34.39520000     -71.56840000
H      -48.19420000     -35.16210000     -71.05340000
H      -46.55890000     -34.69000000     -71.77590000
C      -42.93080000     -32.14820000     -71.47220000
H      -43.17080000     -31.18830000     -72.01680000
H      -42.40640000     -32.04970000     -70.50940000
C      -44.33180000     -32.72830000     -71.16580000
H      -44.98950000     -31.82200000     -71.17510000
H      -44.55800000     -33.44010000     -71.95940000
C      -47.70550000     -33.20310000     -70.66380000
H      -48.83780000     -32.89890000     -70.58220000
H      -47.34670000     -32.34670000     -71.23750000
C      -47.07780000     -33.46170000     -69.32390000
C      -47.80030000     -34.11840000     -68.32870000
C      -45.61770000     -33.66260000     -69.12930000
H      -48.91140000     -33.99560000     -68.22210000
C      -45.34110000     -34.24940000     -67.90680000
C      -44.37990000     -33.35670000     -69.80210000
C      -43.27950000     -33.85410000     -69.10420000
S      -46.72970000     -34.74390000     -67.00790000
S      -43.66950000     -34.63600000     -67.62920000
H      -42.22830000     -33.62640000     -69.30310000
