40
Properties=species:S:1:pos:R:3 #=T CELL(abcABC):=T 1.889726e+02=T 90.00000=T Traj:=T positionsangstrom=T Step:=T 0=T Bead:=T pbc="F F F"
C      -43.91920000     -31.21690000     -74.19600000
C      -43.49010000     -32.59910000     -74.24390000
C      -44.38630000     -33.59370000     -74.55020000
C      -45.82100000     -33.27870000     -74.75600000
C      -46.13650000     -31.94810000     -74.77420000
C      -45.24400000     -30.90190000     -74.49070000
H      -43.18450000     -30.48900000     -74.12850000
H      -44.09410000     -34.63800000     -74.66610000
H      -47.14090000     -31.68480000     -74.87810000
H      -45.55080000     -29.87730000     -74.59740000
C      -46.84300000     -34.34590000     -75.04110000
H      -46.35500000     -35.27960000     -75.21610000
H      -47.42320000     -34.04380000     -75.90720000
C      -42.07260000     -33.00840000     -73.85400000
H      -41.80080000     -34.05070000     -74.28270000
H      -41.37770000     -32.24950000     -74.21610000
S      -48.11460000     -34.52250000     -73.68270000
S      -41.93730000     -33.34470000     -71.97390000
C      -47.17590000     -34.48650000     -72.05960000
H      -47.27230000     -35.50330000     -71.52530000
H      -46.18970000     -34.35120000     -72.33260000
C      -42.88300000     -31.91290000     -71.21740000
H      -43.02640000     -31.14330000     -71.97870000
H      -42.25740000     -31.46110000     -70.48980000
C      -44.33080000     -32.24380000     -70.91500000
H      -44.96800000     -31.30480000     -71.06230000
H      -44.72900000     -32.89970000     -71.73680000
C      -47.57700000     -33.31330000     -71.13460000
H      -48.67990000     -33.14750000     -71.16200000
H      -47.39690000     -32.32380000     -71.46040000
C      -47.18660000     -33.69190000     -69.71700000
C      -48.08430000     -34.17640000     -68.76510000
C      -45.88530000     -33.46360000     -69.11680000
H      -49.16470000     -34.32980000     -68.98540000
C      -45.74470000     -34.04920000     -67.85780000
C      -44.62460000     -32.87850000     -69.61310000
C      -43.61520000     -33.08910000     -68.66300000
S      -47.28490000     -34.65340000     -67.25890000
S      -44.15500000     -33.80180000     -67.18720000
H      -42.60460000     -32.65380000     -68.75270000
