40
Properties=species:S:1:pos:R:3 #=T CELL(abcABC):=T 1.889726e+02=T 90.00000=T Traj:=T positionsangstrom=T Step:=T 0=T Bead:=T pbc="F F F"
C      -46.96400000     -34.65340000     -70.66660000
C      -47.21830000     -33.52640000     -69.89500000
C      -46.28990000     -33.13230000     -68.88520000
C      -45.06430000     -33.88260000     -68.67430000
C      -44.91750000     -34.96430000     -69.46630000
C      -45.84470000     -35.41660000     -70.38050000
H      -47.72540000     -34.96900000     -71.33580000
H      -46.38020000     -32.26000000     -68.25850000
H      -43.95410000     -35.51970000     -69.45400000
H      -45.53920000     -36.25920000     -70.97370000
C      -44.08240000     -33.46980000     -67.67880000
H      -43.98590000     -34.24430000     -66.90590000
H      -44.32450000     -32.59080000     -67.09890000
C      -48.45260000     -32.71600000     -70.03390000
H      -49.14300000     -33.12700000     -69.30740000
H      -48.27250000     -31.67110000     -69.67340000
S      -42.42490000     -33.19680000     -68.45110000
S      -49.21020000     -32.56970000     -71.64000000
C      -42.77480000     -31.71400000     -69.57080000
H      -43.06080000     -30.84130000     -68.93460000
H      -41.81340000     -31.47650000     -70.02670000
C      -48.18040000     -31.30640000     -72.56470000
H      -48.49280000     -30.31330000     -72.18190000
H      -48.49480000     -31.35410000     -73.64720000
C      -46.69130000     -31.29140000     -72.56590000
H      -46.45550000     -30.55770000     -73.25230000
H      -46.29120000     -30.98020000     -71.56960000
C      -43.82100000     -31.75930000     -70.74260000
H      -43.74070000     -30.81430000     -71.19140000
H      -44.83390000     -31.74650000     -70.33440000
C      -43.66980000     -32.81530000     -71.72730000
C      -42.53400000     -33.58520000     -71.83380000
C      -44.76490000     -33.17930000     -72.62760000
H      -41.64240000     -33.40770000     -71.30010000
C      -44.32710000     -34.17460000     -73.50110000
C      -46.01060000     -32.61160000     -73.01250000
C      -46.70380000     -33.42690000     -73.84600000
S      -42.70050000     -34.75900000     -73.17130000
S      -45.65670000     -34.70500000     -74.49650000
H      -47.55370000     -33.19150000     -74.42260000
