40
Properties=species:S:1:pos:R:3 #=T CELL(abcABC):=T 1.889726e+02=T 90.00000=T Traj:=T positionsangstrom=T Step:=T 0=T Bead:=T pbc="F F F"
C      -44.45530000     -30.94120000     -74.72430000
C      -44.14920000     -32.28770000     -74.54660000
C      -45.16240000     -33.21200000     -74.36250000
C      -46.48580000     -32.85450000     -74.54680000
C      -46.80660000     -31.50310000     -74.89510000
C      -45.79910000     -30.57020000     -74.90110000
H      -43.67690000     -30.19040000     -74.98940000
H      -44.97660000     -34.30680000     -74.25560000
H      -47.86450000     -31.17460000     -74.98240000
H      -46.12920000     -29.56980000     -75.11810000
C      -47.62150000     -33.92540000     -74.38840000
H      -47.26410000     -34.96870000     -74.30180000
H      -48.30610000     -33.87180000     -75.24800000
C      -42.65180000     -32.64580000     -74.32370000
H      -42.33950000     -33.44040000     -74.95970000
H      -42.08640000     -31.81280000     -74.56080000
S      -48.56030000     -33.52940000     -72.86490000
S      -42.30240000     -33.20940000     -72.64340000
C      -47.49300000     -34.10230000     -71.51580000
H      -47.88690000     -35.07870000     -71.33970000
H      -46.44090000     -34.25970000     -71.82860000
C      -43.00750000     -31.88830000     -71.56820000
H      -43.19600000     -31.01080000     -72.17930000
H      -42.34510000     -31.74520000     -70.69670000
C      -44.39300000     -32.32460000     -70.96300000
H      -44.87940000     -31.47140000     -70.47730000
H      -45.09070000     -32.64110000     -71.71630000
C      -47.57110000     -33.11500000     -70.20630000
H      -48.55730000     -33.07270000     -69.89660000
H      -47.20860000     -32.06240000     -70.37500000
C      -46.85390000     -33.79380000     -69.07600000
C      -47.45570000     -34.34080000     -67.92700000
C      -45.40160000     -33.81230000     -69.07640000
H      -48.45410000     -34.39090000     -67.60460000
C      -44.99550000     -34.61790000     -67.99960000
C      -44.24300000     -33.42460000     -69.91080000
C      -43.06690000     -33.91770000     -69.44070000
S      -46.25270000     -35.11420000     -66.91440000
S      -43.23110000     -34.89640000     -67.99790000
H      -42.05640000     -33.74950000     -69.79720000
