40
Properties=species:S:1:pos:R:3 #=T CELL(abcABC):=T 1.889726e+02=T 90.00000=T Traj:=T positionsangstrom=T Step:=T 0=T Bead:=T pbc="F F F"
C      -44.43120000     -31.00460000     -74.74740000
C      -44.48750000     -32.42680000     -74.53370000
C      -45.72160000     -33.04180000     -74.37440000
C      -46.84070000     -32.21430000     -74.29520000
C      -46.79790000     -30.83220000     -74.46800000
C      -45.57170000     -30.20260000     -74.77010000
H      -43.43270000     -30.68040000     -74.90260000
H      -45.80260000     -34.15690000     -74.38590000
H      -47.71380000     -30.22960000     -74.31460000
H      -45.54720000     -29.14060000     -74.87560000
C      -48.26580000     -32.83020000     -73.99020000
H      -48.30800000     -33.90220000     -74.18160000
H      -48.94010000     -32.33830000     -74.63120000
C      -43.29330000     -33.31040000     -74.58870000
H      -43.57580000     -34.28810000     -74.80030000
H      -42.47790000     -33.04970000     -75.16670000
S      -48.77730000     -32.60160000     -72.21860000
S      -42.39010000     -33.32030000     -72.89180000
C      -47.71580000     -33.75970000     -71.30310000
H      -48.21380000     -34.71770000     -71.25370000
H      -46.79200000     -33.91920000     -71.83870000
C      -43.15030000     -32.03800000     -71.78440000
H      -43.33130000     -31.06300000     -72.33160000
H      -42.30550000     -31.90020000     -71.08660000
C      -44.36730000     -32.47920000     -71.00430000
H      -44.77920000     -31.69700000     -70.39130000
H      -45.09060000     -32.88940000     -71.73230000
C      -47.58720000     -33.23500000     -69.87940000
H      -48.56130000     -33.18200000     -69.47400000
H      -47.19890000     -32.17220000     -69.86940000
C      -46.60210000     -34.05350000     -69.09690000
C      -47.08420000     -34.92170000     -68.14610000
C      -45.14790000     -34.18720000     -69.20100000
H      -48.09840000     -34.87940000     -67.90920000
C      -44.59900000     -35.03270000     -68.20230000
C      -44.10910000     -33.59230000     -69.99250000
C      -42.82780000     -33.92170000     -69.58320000
S      -45.85120000     -35.81730000     -67.23700000
S      -42.85400000     -35.11910000     -68.26910000
H      -41.89830000     -33.45950000     -69.85730000
