40
Properties=species:S:1:pos:R:3 #=T CELL(abcABC):=T 1.889726e+02=T 90.00000=T Traj:=T positionsangstrom=T Step:=T 0=T Bead:=T pbc="F F F"
C      -44.36330000     -30.90940000     -74.73310000
C      -43.90420000     -32.21430000     -74.57720000
C      -44.87330000     -33.21830000     -74.50120000
C      -46.24280000     -33.00930000     -74.55710000
C      -46.73560000     -31.68160000     -74.70740000
C      -45.79380000     -30.66290000     -74.89410000
H      -43.78590000     -30.00510000     -74.68210000
H      -44.44980000     -34.24970000     -74.49450000
H      -47.82580000     -31.58000000     -74.89390000
H      -46.23880000     -29.72390000     -75.23640000
C      -47.29360000     -34.09950000     -74.51140000
H      -46.87130000     -35.09020000     -74.34830000
H      -47.82150000     -34.18850000     -75.42620000
C      -42.48200000     -32.55990000     -74.37100000
H      -42.13270000     -33.33150000     -74.95950000
H      -41.91120000     -31.66190000     -74.59250000
S      -48.48710000     -33.87070000     -73.07170000
S      -42.04130000     -33.10600000     -72.59810000
C      -47.57480000     -34.18400000     -71.49420000
H      -48.01280000     -35.14960000     -71.18280000
H      -46.56520000     -34.36200000     -71.81970000
C      -42.94850000     -32.00140000     -71.45580000
H      -43.16540000     -31.05990000     -71.96760000
H      -42.25280000     -31.80920000     -70.64660000
C      -44.30380000     -32.57500000     -71.02370000
H      -44.92740000     -31.74520000     -70.77500000
H      -44.86560000     -32.93800000     -71.88140000
C      -47.60810000     -33.09550000     -70.49290000
H      -48.63520000     -32.60920000     -70.40490000
H      -47.05370000     -32.30160000     -70.85750000
C      -46.96960000     -33.54060000     -69.17620000
C      -47.64120000     -34.12600000     -68.12470000
C      -45.51520000     -33.85060000     -69.10540000
H      -48.71770000     -34.27180000     -67.94360000
C      -45.20260000     -34.53050000     -67.90260000
C      -44.33620000     -33.45930000     -69.80040000
C      -43.20220000     -33.93240000     -69.23350000
S      -46.60680000     -34.86570000     -66.92510000
S      -43.48700000     -34.73370000     -67.67540000
H      -42.16430000     -33.80640000     -69.55280000
