40
Properties=species:S:1:pos:R:3 #=T CELL(abcABC):=T 1.889726e+02=T 90.00000=T Traj:=T positionsangstrom=T Step:=T 0=T Bead:=T pbc="F F F"
C      -46.64870000     -35.19050000     -69.66200000
C      -47.15490000     -33.89560000     -69.26300000
C      -46.28720000     -33.05590000     -68.59030000
C      -44.90430000     -33.38400000     -68.37070000
C      -44.46930000     -34.70340000     -68.67510000
C      -45.34080000     -35.57810000     -69.39300000
H      -47.31710000     -35.99460000     -70.00210000
H      -46.67560000     -32.12900000     -68.19080000
H      -43.43260000     -34.96540000     -68.49090000
H      -45.00070000     -36.59450000     -69.60430000
C      -43.99990000     -32.34690000     -67.76250000
H      -43.59940000     -32.70050000     -66.83590000
H      -44.46820000     -31.33410000     -67.76670000
C      -48.51290000     -33.41290000     -69.63180000
H      -49.19730000     -34.06300000     -69.18310000
H      -48.58990000     -32.45170000     -69.31910000
S      -42.35010000     -32.11630000     -68.55500000
S      -48.82430000     -33.47900000     -71.48590000
C      -42.63720000     -31.38450000     -70.27260000
H      -42.56350000     -30.33170000     -70.16370000
H      -41.76500000     -31.78370000     -70.83770000
C      -48.50530000     -31.77840000     -72.20100000
H      -48.91180000     -30.98470000     -71.53600000
H      -48.96150000     -31.75680000     -73.13440000
C      -46.99410000     -31.51650000     -72.50270000
H      -46.88240000     -30.75750000     -73.25990000
H      -46.45750000     -31.18520000     -71.58380000
C      -43.94970000     -31.85560000     -70.94700000
H      -44.23100000     -30.96690000     -71.43140000
H      -44.71760000     -32.13480000     -70.20400000
C      -43.90670000     -32.98970000     -71.93530000
C      -42.89300000     -33.89560000     -71.95420000
C      -44.85050000     -33.08430000     -73.03790000
H      -42.07990000     -34.30400000     -71.27920000
C      -44.48760000     -34.13580000     -73.90360000
C      -46.20010000     -32.60490000     -73.31990000
C      -46.78790000     -33.22780000     -74.34960000
S      -43.05610000     -35.03190000     -73.37420000
S      -45.65240000     -34.37870000     -75.12570000
H      -47.72290000     -33.09200000     -74.81440000
