40
Properties=species:S:1:pos:R:3 #=T CELL(abcABC):=T 1.889726e+02=T 90.00000=T Traj:=T positionsangstrom=T Step:=T 0=T Bead:=T pbc="F F F"
C      -46.58600000     -35.33390000     -69.83530000
C      -47.05590000     -34.06080000     -69.48440000
C      -46.20030000     -33.10870000     -68.85160000
C      -44.89210000     -33.53160000     -68.53560000
C      -44.43360000     -34.81050000     -68.86480000
C      -45.28640000     -35.72170000     -69.44880000
H      -47.13240000     -36.07470000     -70.36170000
H      -46.55060000     -32.09180000     -68.63210000
H      -43.37500000     -35.03030000     -68.70910000
H      -44.80420000     -36.64520000     -69.74520000
C      -44.03000000     -32.42390000     -68.02300000
H      -44.02860000     -32.52380000     -66.90470000
H      -44.32440000     -31.39370000     -68.18820000
C      -48.49450000     -33.79290000     -69.89150000
H      -49.22710000     -34.46950000     -69.55300000
H      -48.84760000     -32.91380000     -69.36380000
S      -42.34000000     -32.45720000     -68.80570000
S      -48.90960000     -33.51450000     -71.71420000
C      -42.61190000     -31.23920000     -70.09890000
H      -42.73340000     -30.23270000     -69.64380000
H      -41.69210000     -31.15580000     -70.60340000
C      -48.54120000     -31.75950000     -72.11690000
H      -48.91600000     -31.03740000     -71.37830000
H      -48.93300000     -31.52850000     -73.15500000
C      -47.00450000     -31.46420000     -72.08770000
H      -46.74010000     -30.38420000     -72.33870000
H      -46.63790000     -31.54070000     -71.08300000
C      -43.77250000     -31.52580000     -71.01310000
H      -43.88680000     -30.65320000     -71.65360000
H      -44.67630000     -31.37700000     -70.47070000
C      -43.76110000     -32.74610000     -71.89510000
C      -42.65050000     -33.58070000     -72.13650000
C      -44.91610000     -33.07280000     -72.66920000
H      -41.67430000     -33.33210000     -71.54640000
C      -44.60540000     -34.06920000     -73.56910000
C      -46.25570000     -32.51690000     -72.91350000
C      -46.87590000     -33.17350000     -73.97670000
S      -43.02220000     -34.78480000     -73.39380000
S      -45.83750000     -34.35920000     -74.75640000
H      -47.82310000     -32.94340000     -74.48980000
