40
Properties=species:S:1:pos:R:3 #=T CELL(abcABC):=T 1.889726e+02=T 90.00000=T Traj:=T positionsangstrom=T Step:=T 0=T Bead:=T pbc="F F F"
C      -46.62170000     -35.44710000     -70.06350000
C      -47.14430000     -34.17940000     -69.71210000
C      -46.31490000     -33.20300000     -69.03940000
C      -44.93600000     -33.48290000     -68.77460000
C      -44.43700000     -34.72140000     -69.18350000
C      -45.25360000     -35.70420000     -69.79690000
H      -47.31270000     -36.14760000     -70.51190000
H      -46.62910000     -32.23580000     -68.69160000
H      -43.45830000     -35.14360000     -68.91560000
H      -44.82620000     -36.66640000     -70.09920000
C      -43.99070000     -32.56950000     -68.08750000
H      -43.79250000     -33.01510000     -67.10950000
H      -44.30340000     -31.54050000     -67.94270000
C      -48.62360000     -33.85750000     -69.87070000
H      -49.07280000     -34.81010000     -69.54690000
H      -48.89330000     -32.97100000     -69.28700000
S      -42.34410000     -32.50900000     -68.82240000
S      -49.02260000     -33.55510000     -71.64750000
C      -42.34740000     -31.26330000     -70.19270000
H      -42.18480000     -30.24300000     -69.79950000
H      -41.42350000     -31.42380000     -70.81950000
C      -48.57540000     -31.77410000     -71.82680000
H      -49.05830000     -31.27860000     -71.01620000
H      -49.06810000     -31.47960000     -72.75060000
C      -47.00600000     -31.53970000     -72.00020000
H      -46.94680000     -30.51070000     -72.37920000
H      -46.56960000     -31.58310000     -71.02950000
C      -43.65970000     -31.27120000     -71.05300000
H      -43.70360000     -30.30170000     -71.66570000
H      -44.52150000     -31.31390000     -70.37490000
C      -43.74250000     -32.49680000     -71.95380000
C      -42.58400000     -33.29240000     -72.16320000
C      -44.88490000     -32.96440000     -72.71480000
H      -41.69260000     -32.90920000     -71.60410000
C      -44.53770000     -34.03440000     -73.50650000
C      -46.25700000     -32.48330000     -72.90730000
C      -46.91790000     -33.23720000     -73.89010000
S      -42.86410000     -34.58080000     -73.26090000
S      -45.95000000     -34.58180000     -74.44220000
H      -47.93100000     -33.11180000     -74.30350000
