40
Properties=species:S:1:pos:R:3 #=T CELL(abcABC):=T 1.889726e+02=T 90.00000=T Traj:=T positionsangstrom=T Step:=T 0=T Bead:=T pbc="F F F"
C      -47.37770000     -34.56860000     -70.03730000
C      -47.52230000     -33.23660000     -69.55760000
C      -46.38510000     -32.66320000     -68.92820000
C      -45.15640000     -33.34910000     -68.82330000
C      -44.99180000     -34.65650000     -69.35460000
C      -46.10180000     -35.26030000     -69.94730000
H      -48.14890000     -35.11490000     -70.61600000
H      -46.45480000     -31.57990000     -68.58140000
H      -44.08060000     -35.26170000     -69.37870000
H      -45.98950000     -36.21240000     -70.45950000
C      -43.97750000     -32.62910000     -68.05720000
H      -43.65610000     -33.21570000     -67.17830000
H      -44.34460000     -31.53920000     -67.80360000
C      -48.74990000     -32.40020000     -69.71960000
H      -49.67160000     -32.72380000     -69.16870000
H      -48.49390000     -31.36630000     -69.41910000
S      -42.29600000     -32.58180000     -68.95850000
S      -49.27490000     -32.33420000     -71.54520000
C      -42.41370000     -31.30070000     -70.38710000
H      -42.59440000     -30.29620000     -69.97530000
H      -41.39980000     -31.38660000     -70.63210000
C      -47.96730000     -31.47560000     -72.63240000
H      -48.16320000     -30.36570000     -72.54290000
H      -48.03700000     -31.74590000     -73.71020000
C      -46.51110000     -31.82780000     -72.36280000
H      -45.98040000     -31.07060000     -72.86090000
H      -46.21560000     -31.79250000     -71.33000000
C      -43.33440000     -31.56310000     -71.52630000
H      -43.12680000     -30.88680000     -72.30000000
H      -44.34480000     -31.26160000     -71.12080000
C      -43.39290000     -32.88470000     -72.24280000
C      -42.29830000     -33.64790000     -72.42180000
C      -44.64540000     -33.47970000     -72.75360000
H      -41.32330000     -33.42910000     -72.02880000
C      -44.39990000     -34.78150000     -73.17250000
C      -46.00480000     -33.10020000     -72.82560000
C      -46.80190000     -34.01790000     -73.45440000
S      -42.66290000     -35.15490000     -73.15420000
S      -45.92040000     -35.51640000     -73.81150000
H      -47.85180000     -34.05140000     -73.63780000
