40
Properties=species:S:1:pos:R:3 #=T CELL(abcABC):=T 1.889726e+02=T 90.00000=T Traj:=T positionsangstrom=T Step:=T 0=T Bead:=T pbc="F F F"
C      -47.28090000     -34.39280000     -69.95490000
C      -47.23130000     -33.01410000     -69.70830000
C      -46.12010000     -32.45990000     -69.05750000
C      -45.02600000     -33.24690000     -68.71180000
C      -45.04190000     -34.65000000     -69.01050000
C      -46.18440000     -35.17890000     -69.61050000
H      -48.10990000     -34.83520000     -70.50060000
H      -46.26330000     -31.44100000     -68.74760000
H      -44.10750000     -35.17890000     -68.73970000
H      -46.28500000     -36.23990000     -69.91780000
C      -43.82320000     -32.71160000     -68.04370000
H      -43.55670000     -33.50630000     -67.30400000
H      -43.98500000     -31.73190000     -67.63660000
C      -48.33280000     -32.10700000     -70.12500000
H      -49.11230000     -32.15190000     -69.38640000
H      -47.89550000     -31.09870000     -70.22430000
S      -42.24040000     -32.65450000     -69.01550000
S      -49.19770000     -32.52280000     -71.75270000
C      -42.31250000     -31.40140000     -70.33460000
H      -42.38570000     -30.49960000     -69.79800000
H      -41.35010000     -31.45090000     -70.91050000
C      -48.24300000     -31.56960000     -73.06800000
H      -48.59150000     -30.54290000     -73.01720000
H      -48.73930000     -32.05190000     -73.98000000
C      -46.64440000     -31.61680000     -72.99140000
H      -46.30140000     -30.99540000     -73.82540000
H      -46.40770000     -31.03870000     -72.15250000
C      -43.39170000     -31.58310000     -71.35710000
H      -43.23820000     -30.87670000     -72.14120000
H      -44.37450000     -31.33660000     -70.91860000
C      -43.48830000     -32.91710000     -72.09300000
C      -42.41630000     -33.81590000     -71.99100000
C      -44.71270000     -33.41700000     -72.69860000
H      -41.54920000     -33.72800000     -71.36350000
C      -44.56350000     -34.73230000     -73.06180000
C      -46.03650000     -32.97450000     -73.04730000
C      -46.80710000     -34.00310000     -73.58720000
S      -42.88000000     -35.32870000     -72.77410000
S      -45.97160000     -35.50020000     -73.78000000
H      -47.79010000     -33.79380000     -73.90300000
