40
Properties=species:S:1:pos:R:3 #=T CELL(abcABC):=T 1.889726e+02=T 90.00000=T Traj:=T positionsangstrom=T Step:=T 0=T Bead:=T pbc="F F F"
C      -43.96320000     -29.91720000     -71.41100000
C      -43.02500000     -30.96070000     -71.31770000
C      -42.97010000     -31.71040000     -70.16000000
C      -43.96840000     -31.58660000     -69.15890000
C      -44.84560000     -30.51550000     -69.23690000
C      -44.85680000     -29.68150000     -70.37600000
H      -44.06130000     -29.42310000     -72.45820000
H      -42.41860000     -32.61590000     -70.04960000
H      -45.59840000     -30.38000000     -68.39730000
H      -45.80080000     -29.03290000     -70.51380000
C      -44.04940000     -32.47940000     -67.96240000
H      -45.05930000     -32.42420000     -67.73600000
H      -43.48520000     -32.06880000     -67.20270000
C      -42.02070000     -31.21060000     -72.39290000
H      -41.81790000     -30.30380000     -72.94780000
H      -41.06120000     -31.58490000     -71.99410000
S      -43.33030000     -34.24660000     -68.05080000
S      -42.54800000     -32.49650000     -73.63780000
C      -44.91780000     -35.05260000     -68.65690000
H      -44.69800000     -36.05850000     -68.55620000
H      -45.77870000     -34.71070000     -68.09220000
C      -44.29170000     -32.88380000     -73.34200000
H      -44.82490000     -32.36870000     -74.12350000
H      -44.69600000     -32.49440000     -72.38050000
C      -44.50090000     -34.40640000     -73.48550000
H      -44.19300000     -34.61240000     -74.49160000
H      -43.77090000     -34.80850000     -72.73160000
C      -45.12290000     -34.87080000     -70.12900000
H      -44.69030000     -35.68110000     -70.64400000
H      -44.61150000     -34.05130000     -70.54460000
C      -46.55250000     -34.74660000     -70.61610000
C      -47.71360000     -34.59110000     -69.89790000
C      -46.79530000     -34.73230000     -72.07370000
H      -47.75010000     -34.62700000     -68.81940000
C      -48.19600000     -34.90500000     -72.32080000
C      -45.94150000     -34.77730000     -73.25650000
C      -46.71650000     -34.96920000     -74.37580000
S      -49.20260000     -34.67250000     -70.88680000
S      -48.51870000     -34.96050000     -74.02370000
H      -46.32870000     -34.87760000     -75.32260000
