40
Properties=species:S:1:pos:R:3 #=T CELL(abcABC):=T 1.889726e+02=T 90.00000=T Traj:=T positionsangstrom=T Step:=T 0=T Bead:=T pbc="F F F"
C      -47.27430000     -34.44080000     -70.17900000
C      -47.35200000     -33.09420000     -69.70690000
C      -46.19410000     -32.49200000     -69.14220000
C      -45.04260000     -33.29470000     -68.90940000
C      -44.95070000     -34.59220000     -69.37440000
C      -46.09220000     -35.16950000     -69.89140000
H      -48.20290000     -34.93330000     -70.47890000
H      -46.17380000     -31.45370000     -68.83150000
H      -44.11400000     -35.24120000     -69.20180000
H      -45.93740000     -36.13530000     -70.33030000
C      -43.85890000     -32.67120000     -68.16660000
H      -43.67700000     -33.12130000     -67.21640000
H      -44.03310000     -31.66820000     -67.88720000
C      -48.64840000     -32.33970000     -69.94210000
H      -49.48260000     -32.69400000     -69.33380000
H      -48.53210000     -31.30490000     -69.63490000
S      -42.27660000     -32.74120000     -69.14760000
S      -49.29330000     -32.29900000     -71.71310000
C      -42.45810000     -31.35540000     -70.34960000
H      -42.72880000     -30.39020000     -69.84380000
H      -41.51580000     -31.14980000     -70.80320000
C      -48.06150000     -31.38980000     -72.69750000
H      -48.25620000     -30.34390000     -72.53000000
H      -48.26050000     -31.62360000     -73.67690000
C      -46.65470000     -31.81380000     -72.37160000
H      -45.95690000     -31.18310000     -73.01330000
H      -46.20410000     -31.49200000     -71.36370000
C      -43.62910000     -31.56220000     -71.33350000
H      -43.72250000     -30.71720000     -72.05330000
H      -44.52010000     -31.57710000     -70.72030000
C      -43.54300000     -32.96020000     -71.95980000
C      -42.36690000     -33.68880000     -72.14380000
C      -44.73570000     -33.55300000     -72.51340000
H      -41.35130000     -33.31550000     -71.82390000
C      -44.39710000     -34.74970000     -73.13840000
C      -46.10070000     -33.18550000     -72.66110000
C      -46.84070000     -34.16070000     -73.32590000
S      -42.72930000     -35.16300000     -72.98380000
S      -45.76970000     -35.53000000     -73.78880000
H      -47.91530000     -34.24600000     -73.52610000
