40
Properties=species:S:1:pos:R:3 #=T CELL(abcABC):=T 1.889726e+02=T 90.00000=T Traj:=T positionsangstrom=T Step:=T 0=T Bead:=T pbc="F F F"
C      -41.13450000     -35.24280000     -70.53450000
C      -41.91740000     -34.73130000     -71.56500000
C      -43.07870000     -35.41040000     -71.93530000
C      -43.47170000     -36.65840000     -71.36740000
C      -42.68390000     -37.18440000     -70.34380000
C      -41.54200000     -36.37870000     -69.87960000
H      -40.27950000     -34.69680000     -70.20190000
H      -43.73620000     -34.97640000     -72.65630000
H      -43.02790000     -38.21300000     -69.89800000
H      -40.92530000     -36.75910000     -69.08910000
C      -44.88170000     -37.20200000     -71.88850000
H      -44.92000000     -38.23550000     -72.17780000
H      -45.07130000     -36.74710000     -72.83130000
C      -41.44590000     -33.48860000     -72.25360000
H      -40.34230000     -33.53640000     -72.46750000
H      -41.88680000     -33.32090000     -73.23360000
S      -46.18780000     -37.03870000     -70.60510000
S      -41.71230000     -32.05070000     -71.13010000
C      -47.37440000     -35.62490000     -71.08440000
H      -48.00110000     -35.90010000     -71.97630000
H      -48.09560000     -35.63670000     -70.29680000
C      -43.35810000     -31.37400000     -71.62000000
H      -43.55960000     -31.52620000     -72.70750000
H      -43.31360000     -30.31290000     -71.44380000
C      -44.56970000     -31.87060000     -70.77730000
H      -44.62620000     -32.91390000     -70.91080000
H      -44.46150000     -31.68030000     -69.64980000
C      -46.72510000     -34.28510000     -71.14960000
H      -45.93490000     -34.25300000     -71.96580000
H      -46.18630000     -34.15760000     -70.19820000
C      -47.65860000     -33.09120000     -71.40300000
C      -49.06470000     -33.16470000     -71.49570000
C      -47.15930000     -31.75490000     -71.44510000
H      -49.58000000     -34.09210000     -71.50560000
C      -48.22170000     -30.86240000     -71.71180000
C      -45.81940000     -31.10610000     -71.25640000
C      -45.97230000     -29.75300000     -71.35390000
S      -49.83530000     -31.63370000     -71.78270000
S      -47.54660000     -29.21560000     -71.76450000
H      -45.23190000     -28.99460000     -71.19080000
