40
Properties=species:S:1:pos:R:3 #=T CELL(abcABC):=T 1.889726e+02=T 90.00000=T Traj:=T positionsangstrom=T Step:=T 0=T Bead:=T pbc="F F F"
C      -47.32150000     -34.63280000     -69.99650000
C      -47.54970000     -33.33020000     -69.52390000
C      -46.45980000     -32.63650000     -68.99270000
C      -45.23020000     -33.22780000     -68.88100000
C      -44.96840000     -34.53590000     -69.32830000
C      -46.03520000     -35.17460000     -69.90600000
H      -48.13930000     -35.27220000     -70.37920000
H      -46.59320000     -31.64590000     -68.58860000
H      -43.98310000     -35.04530000     -69.19470000
H      -45.95070000     -36.24400000     -70.14190000
C      -44.06400000     -32.40000000     -68.22390000
H      -43.95990000     -32.78890000     -67.24110000
H      -44.34000000     -31.37650000     -68.00940000
C      -48.83640000     -32.47690000     -69.73160000
H      -49.68670000     -32.89910000     -69.26190000
H      -48.65180000     -31.49410000     -69.25610000
S      -42.41720000     -32.61850000     -68.95320000
S      -49.27800000     -32.58900000     -71.48960000
C      -42.24640000     -31.44230000     -70.29760000
H      -42.32010000     -30.37470000     -69.94620000
H      -41.17550000     -31.58510000     -70.65030000
C      -48.10450000     -31.41000000     -72.35080000
H      -48.21470000     -30.45650000     -71.88940000
H      -48.52180000     -31.27160000     -73.38810000
C      -46.52920000     -31.63210000     -72.35550000
H      -46.14850000     -30.86830000     -73.12990000
H      -46.13550000     -31.44710000     -71.32290000
C      -43.17610000     -31.59990000     -71.40940000
H      -43.05010000     -30.73410000     -72.14220000
H      -44.20250000     -31.43970000     -70.97680000
C      -43.27280000     -32.90010000     -72.19120000
C      -42.24290000     -33.76180000     -72.37060000
C      -44.54570000     -33.40490000     -72.77140000
H      -41.27610000     -33.75070000     -72.00350000
C      -44.35960000     -34.65480000     -73.30230000
C      -46.06450000     -33.02760000     -72.77470000
C      -46.76050000     -34.04530000     -73.38560000
S      -42.76920000     -35.19610000     -73.31550000
S      -45.77950000     -35.40480000     -73.91700000
H      -47.82850000     -34.12140000     -73.56750000
