40
Properties=species:S:1:pos:R:3 #=T CELL(abcABC):=T 1.889726e+02=T 90.00000=T Traj:=T positionsangstrom=T Step:=T 0=T Bead:=T pbc="F F F"
C      -42.61370000     -34.87160000     -68.64750000
C      -42.26290000     -34.88320000     -70.00930000
C      -43.01120000     -35.71020000     -70.85500000
C      -44.07940000     -36.46160000     -70.42050000
C      -44.43690000     -36.44550000     -69.08970000
C      -43.77720000     -35.60430000     -68.17870000
H      -42.23240000     -34.11820000     -67.94100000
H      -42.66380000     -35.86830000     -71.91970000
H      -45.42580000     -36.90150000     -68.85930000
H      -44.19970000     -35.62110000     -67.12390000
C      -44.67110000     -37.37140000     -71.46380000
H      -44.56370000     -38.40540000     -71.04790000
H      -44.17080000     -37.25570000     -72.45020000
C      -41.06990000     -34.15150000     -70.55320000
H      -40.26750000     -33.96610000     -69.76840000
H      -40.58950000     -34.66340000     -71.43640000
S      -46.52790000     -37.15560000     -71.67450000
S      -41.62350000     -32.35260000     -70.96160000
C      -46.53370000     -35.35130000     -72.22990000
H      -45.48620000     -35.05320000     -72.39100000
H      -46.84550000     -35.36250000     -73.28400000
C      -43.31100000     -32.48800000     -71.65110000
H      -43.55390000     -33.42860000     -72.05860000
H      -43.32710000     -31.64620000     -72.38400000
C      -44.39920000     -31.99130000     -70.70680000
H      -44.69450000     -32.72210000     -69.94100000
H      -43.85500000     -31.17100000     -70.09050000
C      -47.17760000     -34.40900000     -71.21860000
H      -46.49950000     -34.26960000     -70.36410000
H      -48.08350000     -34.81460000     -70.75740000
C      -47.56830000     -32.99470000     -71.75960000
C      -48.82960000     -32.84040000     -72.33860000
C      -46.88550000     -31.69160000     -71.74450000
H      -49.56770000     -33.61090000     -72.39530000
C      -47.69370000     -30.61400000     -72.28440000
C      -45.56880000     -31.23000000     -71.40570000
C      -45.37000000     -29.96560000     -71.83020000
S      -49.11020000     -31.23940000     -72.94490000
S      -46.78870000     -29.15600000     -72.46910000
H      -44.44120000     -29.48040000     -71.71000000
