40
Properties=species:S:1:pos:R:3 #=T CELL(abcABC):=T 1.889726e+02=T 90.00000=T Traj:=T positionsangstrom=T Step:=T 0=T Bead:=T pbc="F F F"
C      -47.00140000     -34.15290000     -69.93950000
C      -47.27440000     -32.84090000     -69.61710000
C      -46.22950000     -32.13850000     -68.97940000
C      -44.97280000     -32.68460000     -68.74410000
C      -44.79730000     -34.03420000     -69.11560000
C      -45.79670000     -34.74250000     -69.65120000
H      -47.76520000     -34.69600000     -70.43620000
H      -46.40900000     -31.12200000     -68.57870000
H      -43.79690000     -34.44850000     -68.93580000
H      -45.57600000     -35.81860000     -69.92300000
C      -43.78810000     -31.76890000     -68.33170000
H      -43.70490000     -31.78080000     -67.27760000
H      -43.91650000     -30.72580000     -68.66500000
C      -48.60470000     -32.25120000     -69.98870000
H      -49.47930000     -32.77830000     -69.47700000
H      -48.82910000     -31.16870000     -69.77920000
S      -42.20090000     -32.39630000     -68.94200000
S      -48.98470000     -32.52420000     -71.79900000
C      -42.10750000     -31.75330000     -70.64130000
H      -41.77280000     -30.70820000     -70.69790000
H      -41.37980000     -32.40730000     -70.96610000
C      -47.92340000     -31.41080000     -72.72760000
H      -48.16560000     -30.39790000     -72.52110000
H      -48.30190000     -31.36790000     -73.74660000
C      -46.36820000     -31.62820000     -72.59510000
H      -45.88860000     -30.76860000     -73.12160000
H      -46.28480000     -31.58330000     -71.44150000
C      -43.30930000     -32.02520000     -71.52850000
H      -43.28590000     -31.34620000     -72.42290000
H      -44.19910000     -31.60930000     -71.01000000
C      -43.61200000     -33.44190000     -71.90050000
C      -42.78790000     -34.56950000     -71.71260000
C      -44.71540000     -33.75140000     -72.71450000
H      -41.79340000     -34.57730000     -71.12930000
C      -44.71920000     -35.09690000     -73.14630000
C      -45.91360000     -32.99680000     -73.13070000
C      -46.75180000     -33.77480000     -73.83390000
S      -43.41650000     -36.02540000     -72.50020000
S      -46.11100000     -35.38490000     -74.14540000
H      -47.74400000     -33.56040000     -74.13000000
