40
Properties=species:S:1:pos:R:3 #=T CELL(abcABC):=T 1.889726e+02=T 90.00000=T Traj:=T positionsangstrom=T Step:=T 0=T Bead:=T pbc="F F F"
C      -42.73960000     -34.75220000     -68.69420000
C      -42.15040000     -34.97520000     -69.96540000
C      -42.79060000     -35.88860000     -70.83660000
C      -43.94560000     -36.55160000     -70.46360000
C      -44.40680000     -36.43830000     -69.16050000
C      -43.71120000     -35.63930000     -68.22680000
H      -42.09430000     -33.97480000     -68.11060000
H      -42.35470000     -36.09230000     -71.79320000
H      -45.14600000     -37.10560000     -68.77950000
H      -43.94940000     -35.63210000     -67.14910000
C      -44.68340000     -37.42040000     -71.40390000
H      -44.73240000     -38.41910000     -71.12270000
H      -44.14420000     -37.49890000     -72.36440000
C      -41.05670000     -34.00220000     -70.39260000
H      -40.39420000     -33.93460000     -69.58330000
H      -40.40070000     -34.40910000     -71.14880000
S      -46.40750000     -36.90240000     -71.56340000
S      -41.51590000     -32.27670000     -70.75850000
C      -46.42320000     -35.12610000     -72.07910000
H      -45.44840000     -34.67900000     -72.28160000
H      -46.99480000     -35.07740000     -73.05000000
C      -43.21530000     -32.26990000     -71.64550000
H      -43.31770000     -33.13930000     -72.28860000
H      -43.13500000     -31.50420000     -72.42160000
C      -44.45320000     -32.12430000     -70.74020000
H      -44.82320000     -33.11890000     -70.51390000
H      -44.29570000     -31.60610000     -69.80970000
C      -47.37000000     -34.31140000     -71.19660000
H      -46.94440000     -34.07560000     -70.21490000
H      -48.23370000     -34.93470000     -71.04340000
C      -47.72000000     -33.01510000     -71.83840000
C      -48.96150000     -32.87700000     -72.42820000
C      -46.88630000     -31.88760000     -72.00030000
H      -49.85450000     -33.43310000     -72.29420000
C      -47.62340000     -30.84400000     -72.56030000
C      -45.68080000     -31.41990000     -71.36420000
C      -45.62390000     -30.09150000     -71.50110000
S      -49.20170000     -31.25850000     -73.12550000
S      -46.83940000     -29.26160000     -72.58510000
H      -44.75900000     -29.56330000     -71.20090000
