40
Properties=species:S:1:pos:R:3 #=T CELL(abcABC):=T 1.889726e+02=T 90.00000=T Traj:=T positionsangstrom=T Step:=T 0=T Bead:=T pbc="F F F"
C      -43.92000000     -30.00270000     -71.35360000
C      -42.92100000     -31.01100000     -71.26580000
C      -42.95790000     -31.89260000     -70.20190000
C      -43.90470000     -31.69970000     -69.21170000
C      -44.98790000     -30.80680000     -69.40790000
C      -45.00140000     -29.90950000     -70.50340000
H      -43.67250000     -29.25000000     -72.18640000
H      -42.08340000     -32.54270000     -70.06500000
H      -45.67560000     -30.77220000     -68.55550000
H      -45.75610000     -29.15050000     -70.43970000
C      -43.81000000     -32.42550000     -67.88320000
H      -44.83220000     -32.25640000     -67.30130000
H      -42.92470000     -32.09260000     -67.18690000
C      -41.96160000     -31.16280000     -72.40290000
H      -41.95080000     -30.18810000     -72.90190000
H      -40.93950000     -31.40180000     -72.00440000
S      -43.45830000     -34.20620000     -67.92470000
S      -42.48290000     -32.46070000     -73.62750000
C      -44.98570000     -34.96780000     -68.64650000
H      -44.89350000     -36.05230000     -68.27320000
H      -45.87930000     -34.60100000     -68.08400000
C      -44.18430000     -33.04370000     -73.25320000
H      -44.88510000     -32.46090000     -73.86760000
H      -44.36530000     -32.77980000     -72.18970000
C      -44.44200000     -34.51990000     -73.41810000
H      -44.11070000     -34.99340000     -74.37910000
H      -44.01830000     -35.16170000     -72.65190000
C      -45.14200000     -34.66730000     -70.10520000
H      -44.44420000     -35.30670000     -70.72680000
H      -44.68190000     -33.66700000     -70.12850000
C      -46.56040000     -34.65620000     -70.69770000
C      -47.70790000     -34.69630000     -69.94390000
C      -46.83790000     -34.66330000     -72.13000000
H      -47.76050000     -34.78280000     -68.86070000
C      -48.20970000     -34.69860000     -72.37400000
C      -46.05870000     -34.67380000     -73.33160000
C      -46.82670000     -34.94030000     -74.45350000
S      -49.16630000     -34.51700000     -70.87050000
S      -48.54430000     -35.01780000     -74.07730000
H      -46.44870000     -34.95630000     -75.42630000
