40
Properties=species:S:1:pos:R:3 #=T CELL(abcABC):=T 1.889726e+02=T 90.00000=T Traj:=T positionsangstrom=T Step:=T 0=T Bead:=T pbc="F F F"
C      -42.59970000     -34.77790000     -68.56150000
C      -42.14330000     -34.86780000     -69.90650000
C      -42.83960000     -35.75380000     -70.77030000
C      -43.96880000     -36.50010000     -70.37470000
C      -44.33580000     -36.47790000     -68.99900000
C      -43.60940000     -35.65160000     -68.12290000
H      -42.04710000     -33.95720000     -67.97490000
H      -42.60600000     -35.58590000     -71.77870000
H      -45.23310000     -36.99440000     -68.73530000
H      -43.92650000     -35.38720000     -67.17050000
C      -44.65090000     -37.42550000     -71.38510000
H      -44.59890000     -38.52910000     -71.09860000
H      -44.16500000     -37.26030000     -72.38900000
C      -41.17330000     -33.87360000     -70.51230000
H      -40.19570000     -33.88710000     -70.03110000
H      -41.19290000     -34.11670000     -71.61440000
S      -46.43670000     -36.96500000     -71.39640000
S      -41.87660000     -32.12400000     -70.46060000
C      -46.22760000     -35.17930000     -71.85110000
H      -45.28510000     -34.93430000     -71.37190000
H      -46.21580000     -35.06610000     -72.93680000
C      -43.29830000     -32.23400000     -71.57560000
H      -43.19200000     -33.04790000     -72.38560000
H      -43.21440000     -31.25290000     -72.01090000
C      -44.66330000     -32.29850000     -70.80710000
H      -45.00990000     -33.31340000     -70.86110000
H      -44.45670000     -32.04820000     -69.79830000
C      -47.36830000     -34.38610000     -71.24900000
H      -47.01280000     -34.10920000     -70.23010000
H      -48.38870000     -34.89730000     -71.21100000
C      -47.64360000     -33.09200000     -72.04320000
C      -48.87110000     -32.97900000     -72.63100000
C      -46.96140000     -31.82660000     -72.09370000
H      -49.61480000     -33.75150000     -72.79930000
C      -47.66920000     -30.73680000     -72.63380000
C      -45.62040000     -31.45750000     -71.57180000
C      -45.33940000     -30.18690000     -71.95200000
S      -49.13840000     -31.35080000     -73.34990000
S      -46.68940000     -29.24830000     -72.59840000
H      -44.51400000     -29.56810000     -71.52900000
