40
Properties=species:S:1:pos:R:3 #=T CELL(abcABC):=T 1.889726e+02=T 90.00000=T Traj:=T positionsangstrom=T Step:=T 0=T Bead:=T pbc="F F F"
C      -47.01170000     -34.32780000     -69.91730000
C      -47.14650000     -32.97050000     -69.75580000
C      -46.11780000     -32.23670000     -69.16770000
C      -45.03100000     -32.92000000     -68.72880000
C      -44.93270000     -34.32190000     -68.78370000
C      -45.90580000     -35.04570000     -69.42930000
H      -47.87960000     -34.79940000     -70.46510000
H      -46.12380000     -31.15780000     -69.01040000
H      -44.03230000     -34.78330000     -68.41960000
H      -45.79500000     -36.11950000     -69.55020000
C      -43.88420000     -32.08250000     -68.18070000
H      -43.75340000     -32.24710000     -67.06990000
H      -44.16690000     -31.09780000     -68.28530000
C      -48.45570000     -32.13990000     -70.08980000
H      -49.32850000     -32.34120000     -69.44600000
H      -48.05320000     -31.10470000     -69.99910000
S      -42.18460000     -32.38330000     -68.80090000
S      -49.01340000     -32.48300000     -71.79740000
C      -42.16220000     -31.64260000     -70.53250000
H      -41.90160000     -30.62440000     -70.46530000
H      -41.28190000     -32.23080000     -71.05530000
C      -48.00060000     -31.50320000     -73.02990000
H      -48.24060000     -30.45370000     -72.85610000
H      -48.21120000     -31.76230000     -74.02230000
C      -46.51060000     -31.63970000     -72.81320000
H      -45.92180000     -30.92840000     -73.57600000
H      -46.15420000     -31.40440000     -71.78360000
C      -43.45470000     -31.80100000     -71.27910000
H      -43.47450000     -31.12140000     -72.14050000
H      -44.33940000     -31.54870000     -70.72900000
C      -43.67600000     -33.23490000     -71.84790000
C      -42.74140000     -34.22420000     -71.77250000
C      -44.85320000     -33.65450000     -72.65470000
H      -41.76410000     -34.32200000     -71.34150000
C      -44.70020000     -34.99170000     -73.17490000
C      -46.06950000     -33.05840000     -73.12200000
C      -46.73490000     -33.85960000     -73.99620000
S      -43.23430000     -35.73760000     -72.63240000
S      -46.01800000     -35.47670000     -74.15210000
H      -47.70650000     -33.72060000     -74.43000000
