40
Properties=species:S:1:pos:R:3 #=T CELL(abcABC):=T 1.889726e+02=T 90.00000=T Traj:=T positionsangstrom=T Step:=T 0=T Bead:=T pbc="F F F"
C      -42.67930000     -34.91940000     -68.76410000
C      -42.30020000     -34.98460000     -70.09190000
C      -43.08320000     -35.73360000     -70.97210000
C      -44.08890000     -36.57030000     -70.44010000
C      -44.51280000     -36.42060000     -69.08760000
C      -43.82440000     -35.56660000     -68.23820000
H      -41.99760000     -34.43130000     -68.15200000
H      -43.09950000     -35.68860000     -72.06420000
H      -45.39610000     -36.98040000     -68.70900000
H      -44.01270000     -35.51660000     -67.15420000
C      -44.89810000     -37.40710000     -71.34510000
H      -44.98320000     -38.42280000     -70.91440000
H      -44.35090000     -37.55540000     -72.25770000
C      -41.16560000     -34.09100000     -70.56600000
H      -40.41900000     -33.99400000     -69.80200000
H      -40.84300000     -34.50200000     -71.51030000
S      -46.68820000     -37.06160000     -71.74920000
S      -41.61920000     -32.37510000     -71.10470000
C      -46.72620000     -35.31180000     -72.30070000
H      -45.80960000     -35.10200000     -72.90710000
H      -47.64630000     -35.28400000     -72.82400000
C      -43.40740000     -32.39030000     -71.76910000
H      -43.46170000     -33.46380000     -72.07830000
H      -43.39340000     -31.79690000     -72.67760000
C      -44.33150000     -32.00900000     -70.66040000
H      -44.65420000     -32.83570000     -70.20700000
H      -43.79710000     -31.52650000     -69.84270000
C      -46.85620000     -34.25440000     -71.17780000
H      -45.86810000     -34.23620000     -70.71450000
H      -47.59210000     -34.58810000     -70.45480000
C      -47.37460000     -32.97640000     -71.72920000
C      -48.67570000     -32.91140000     -72.20510000
C      -46.69030000     -31.74380000     -71.80740000
H      -49.30120000     -33.81610000     -72.41380000
C      -47.46880000     -30.72260000     -72.37760000
C      -45.49170000     -31.18760000     -71.32550000
C      -45.35220000     -29.85970000     -71.62240000
S      -49.10210000     -31.33140000     -72.74720000
S      -46.74170000     -29.12160000     -72.41470000
H      -44.59170000     -29.23740000     -71.22250000
