40
Properties=species:S:1:pos:R:3 #=T CELL(abcABC):=T 1.889726e+02=T 90.00000=T Traj:=T positionsangstrom=T Step:=T 0=T Bead:=T pbc="F F F"
C      -42.83870000     -34.79700000     -68.92290000
C      -42.49530000     -34.92300000     -70.30490000
C      -43.23190000     -35.80080000     -71.06980000
C      -44.28720000     -36.54670000     -70.48170000
C      -44.57670000     -36.39020000     -69.11110000
C      -43.87080000     -35.48160000     -68.32890000
H      -42.40000000     -34.00180000     -68.39260000
H      -42.84330000     -35.98810000     -72.01480000
H      -45.39080000     -37.00120000     -68.74400000
H      -44.38690000     -35.16890000     -67.44140000
C      -44.99920000     -37.50100000     -71.35250000
H      -44.92030000     -38.50990000     -71.02580000
H      -44.61020000     -37.45720000     -72.40700000
C      -41.24160000     -34.25830000     -70.85640000
H      -40.33700000     -34.47580000     -70.30450000
H      -40.95580000     -34.80700000     -71.78780000
S      -46.82160000     -37.11780000     -71.67360000
S      -41.32890000     -32.48630000     -71.11480000
C      -46.74220000     -35.37080000     -72.34430000
H      -45.89790000     -35.23550000     -73.03020000
H      -47.61800000     -35.14450000     -73.03150000
C      -42.98210000     -32.15040000     -71.78650000
H      -43.21510000     -33.11430000     -72.35950000
H      -42.97070000     -31.34760000     -72.53020000
C      -44.07510000     -31.80300000     -70.70780000
H      -44.27860000     -32.73670000     -70.10770000
H      -43.56230000     -30.96750000     -70.12770000
C      -46.68530000     -34.32460000     -71.22970000
H      -45.67680000     -34.04450000     -70.91760000
H      -47.09350000     -34.67680000     -70.27910000
C      -47.37460000     -33.09390000     -71.74930000
C      -48.71310000     -32.97590000     -72.12150000
C      -46.67800000     -31.71750000     -71.75210000
H      -49.42170000     -33.81930000     -71.99790000
C      -47.51570000     -30.76110000     -72.21350000
C      -45.39130000     -31.10150000     -71.29480000
C      -45.36270000     -29.73550000     -71.47910000
S      -49.10770000     -31.29610000     -72.65360000
S      -46.87790000     -29.15600000     -72.28160000
H      -44.51680000     -29.08840000     -71.24060000
