40
Properties=species:S:1:pos:R:3 #=T CELL(abcABC):=T 1.889726e+02=T 90.00000=T Traj:=T positionsangstrom=T Step:=T 0=T Bead:=T pbc="F F F"
C      -42.51750000     -35.21830000     -68.41180000
C      -42.43830000     -34.89950000     -69.78440000
C      -43.29190000     -35.68110000     -70.68220000
C      -44.11990000     -36.66590000     -70.22700000
C      -44.22410000     -36.88720000     -68.85890000
C      -43.42150000     -36.15510000     -67.94760000
H      -41.86300000     -34.74060000     -67.70440000
H      -43.08910000     -35.57580000     -71.72300000
H      -44.87000000     -37.67620000     -68.53740000
H      -43.64630000     -36.32010000     -66.88360000
C      -44.92560000     -37.52450000     -71.15350000
H      -44.90840000     -38.54840000     -70.80880000
H      -44.54680000     -37.43410000     -72.19930000
C      -41.37930000     -33.90210000     -70.20050000
H      -40.43410000     -34.25080000     -69.71050000
H      -41.41700000     -33.92130000     -71.35120000
S      -46.71300000     -36.96910000     -71.11520000
S      -41.90150000     -32.23510000     -69.75860000
C      -46.79330000     -35.31180000     -71.96210000
H      -45.72580000     -35.27930000     -72.29250000
H      -47.29090000     -35.39400000     -72.90380000
C      -42.92250000     -31.67660000     -71.33460000
H      -42.64740000     -32.42000000     -72.07080000
H      -42.67710000     -30.62980000     -71.48350000
C      -44.41850000     -31.88480000     -71.03080000
H      -44.51230000     -32.93120000     -71.21460000
H      -44.61050000     -31.63050000     -69.91120000
C      -47.23130000     -34.11760000     -71.15650000
H      -46.38150000     -33.90600000     -70.38640000
H      -48.09760000     -34.37240000     -70.56120000
C      -47.53860000     -32.88190000     -72.03920000
C      -48.62740000     -32.96080000     -72.86190000
C      -46.74250000     -31.63420000     -72.23600000
H      -49.39520000     -33.71430000     -72.63970000
C      -47.47220000     -30.74090000     -73.05890000
C      -45.53570000     -31.06790000     -71.68650000
C      -45.31640000     -29.80390000     -72.25890000
S      -48.92610000     -31.50900000     -73.73040000
S      -46.63390000     -29.22790000     -73.30330000
H      -44.49190000     -29.14580000     -72.06800000
