40
Properties=species:S:1:pos:R:3 #=T CELL(abcABC):=T 1.889726e+02=T 90.00000=T Traj:=T positionsangstrom=T Step:=T 0=T Bead:=T pbc="F F F"
C      -42.65570000     -35.34700000     -68.01770000
C      -42.66470000     -34.86850000     -69.32330000
C      -43.53780000     -35.40900000     -70.24860000
C      -44.38050000     -36.48530000     -69.92110000
C      -44.30190000     -36.97250000     -68.59780000
C      -43.52980000     -36.36960000     -67.63890000
H      -41.99630000     -34.95560000     -67.29090000
H      -43.37830000     -35.06530000     -71.26280000
H      -45.07410000     -37.62030000     -68.17470000
H      -43.58330000     -36.76680000     -66.60640000
C      -45.18830000     -37.12960000     -70.91990000
H      -45.27720000     -38.23040000     -70.72910000
H      -44.75640000     -37.01590000     -71.94430000
C      -41.68300000     -33.73530000     -69.69310000
H      -40.77930000     -34.09320000     -69.12840000
H      -41.44260000     -33.71380000     -70.76280000
S      -46.96860000     -36.74550000     -71.04330000
S      -42.11670000     -32.01900000     -69.15000000
C      -46.90900000     -35.09260000     -71.90940000
H      -45.86330000     -34.73580000     -72.03970000
H      -47.29270000     -35.12660000     -72.92720000
C      -43.24810000     -31.29340000     -70.46530000
H      -42.60850000     -31.09960000     -71.34080000
H      -43.61590000     -30.37270000     -70.01180000
C      -44.48140000     -32.15960000     -70.98240000
H      -44.07850000     -33.04160000     -71.42560000
H      -45.15180000     -32.47530000     -70.20240000
C      -47.59240000     -33.86690000     -71.21840000
H      -46.84750000     -33.49660000     -70.38120000
H      -48.57560000     -34.13130000     -70.80770000
C      -47.67030000     -32.78660000     -72.24450000
C      -48.72080000     -32.68840000     -73.09510000
C      -46.60420000     -31.88530000     -72.60920000
H      -49.58690000     -33.28890000     -73.16650000
C      -47.04330000     -31.05600000     -73.62920000
C      -45.28090000     -31.46950000     -72.07500000
C      -44.75190000     -30.51180000     -72.96040000
S      -48.60210000     -31.33910000     -74.19050000
S      -45.88900000     -29.88000000     -74.13800000
H      -43.90880000     -29.96610000     -72.70020000
