40
Properties=species:S:1:pos:R:3 #=T CELL(abcABC):=T 1.889726e+02=T 90.00000=T Traj:=T positionsangstrom=T Step:=T 0=T Bead:=T pbc="F F F"
C      -47.43760000     -32.69590000     -68.89390000
C      -46.69720000     -31.53440000     -69.20350000
C      -45.29940000     -31.67630000     -68.97900000
C      -44.70440000     -32.94020000     -68.83470000
C      -45.43480000     -34.10650000     -68.93230000
C      -46.82850000     -33.93790000     -68.89970000
H      -48.51400000     -32.62690000     -69.11890000
H      -44.65520000     -30.80740000     -68.86910000
H      -44.88050000     -35.04200000     -68.91060000
H      -47.55870000     -34.77040000     -68.66410000
C      -43.20320000     -32.91270000     -68.54020000
H      -43.03210000     -32.96910000     -67.52770000
H      -42.80570000     -31.99350000     -68.83500000
C      -47.34840000     -30.18820000     -69.48480000
H      -48.41510000     -30.24920000     -69.24260000
H      -46.95640000     -29.44310000     -68.87300000
S      -42.24520000     -34.27600000     -69.29810000
S      -47.17970000     -29.53180000     -71.23180000
C      -41.85500000     -33.52440000     -70.97810000
H      -41.22150000     -32.66690000     -70.82370000
H      -41.04450000     -34.20460000     -71.44820000
C      -47.24370000     -31.03860000     -72.26710000
H      -47.51430000     -30.80400000     -73.33600000
H      -48.10420000     -31.60570000     -71.88290000
C      -46.01350000     -31.85840000     -72.28510000
H      -45.20110000     -31.40380000     -72.78930000
H      -45.72730000     -31.97400000     -71.26130000
C      -42.97410000     -33.12480000     -71.87240000
H      -42.53180000     -32.44020000     -72.68040000
H      -43.78670000     -32.61320000     -71.38420000
C      -43.65320000     -34.35620000     -72.54680000
C      -43.22970000     -35.61510000     -72.70280000
C      -45.08370000     -34.25390000     -72.90710000
H      -42.22590000     -36.11230000     -72.80280000
C      -45.57100000     -35.38910000     -73.53430000
C      -46.09420000     -33.22320000     -72.90980000
C      -47.34370000     -33.70640000     -73.27550000
S      -44.45580000     -36.73080000     -73.45630000
S      -47.26080000     -35.28040000     -73.94300000
H      -48.32820000     -33.26860000     -73.45420000
