40
Properties=species:S:1:pos:R:3 #=T CELL(abcABC):=T 1.889726e+02=T 90.00000=T Traj:=T positionsangstrom=T Step:=T 0=T Bead:=T pbc="F F F"
C      -42.91290000     -34.93870000     -67.86360000
C      -42.96040000     -34.56780000     -69.26160000
C      -43.72320000     -35.31430000     -70.14290000
C      -44.42710000     -36.40570000     -69.71690000
C      -44.46150000     -36.67180000     -68.37980000
C      -43.68010000     -36.00940000     -67.43610000
H      -42.20900000     -34.56390000     -67.17780000
H      -43.71590000     -35.13880000     -71.23100000
H      -45.21370000     -37.38480000     -68.08160000
H      -43.65110000     -36.34490000     -66.42760000
C      -45.21940000     -37.20490000     -70.70930000
H      -45.08870000     -38.27590000     -70.41730000
H      -44.86360000     -37.09330000     -71.73220000
C      -42.04750000     -33.39750000     -69.65390000
H      -41.07920000     -33.60740000     -69.11950000
H      -41.84080000     -33.35190000     -70.71100000
S      -47.05720000     -36.95230000     -70.65120000
S      -42.53660000     -31.76200000     -68.98910000
C      -47.21890000     -35.59100000     -71.95960000
H      -46.65750000     -35.77980000     -72.85320000
H      -48.27040000     -35.51380000     -72.18140000
C      -43.33800000     -31.00670000     -70.45740000
H      -42.56510000     -30.61010000     -71.12900000
H      -43.88760000     -30.16680000     -70.05430000
C      -44.27930000     -31.94320000     -71.16010000
H      -43.73240000     -32.86860000     -71.56090000
H      -44.91220000     -32.49800000     -70.46440000
C      -46.84480000     -34.14120000     -71.44610000
H      -45.79560000     -34.10590000     -71.06790000
H      -47.49030000     -33.97100000     -70.58220000
C      -46.99980000     -33.17130000     -72.58870000
C      -48.18380000     -33.25430000     -73.30490000
C      -46.27770000     -31.97900000     -72.86590000
H      -49.01840000     -33.85530000     -73.06380000
C      -46.82860000     -31.17240000     -73.89670000
C      -45.14950000     -31.27590000     -72.26420000
C      -44.91640000     -30.02520000     -72.83350000
S      -48.27320000     -31.97610000     -74.56360000
S      -45.99080000     -29.71220000     -74.18170000
H      -44.10460000     -29.32530000     -72.71220000
