40
Properties=species:S:1:pos:R:3 #=T CELL(abcABC):=T 1.889726e+02=T 90.00000=T Traj:=T positionsangstrom=T Step:=T 0=T Bead:=T pbc="F F F"
C      -42.69110000     -35.15370000     -67.67250000
C      -42.79530000     -34.68110000     -68.94820000
C      -43.51240000     -35.34200000     -69.90410000
C      -44.20540000     -36.53140000     -69.61150000
C      -44.16400000     -36.95360000     -68.22410000
C      -43.50440000     -36.22710000     -67.28670000
H      -41.92830000     -34.71380000     -66.93960000
H      -43.42320000     -34.85820000     -70.85470000
H      -44.78890000     -37.79430000     -67.87500000
H      -43.57970000     -36.61740000     -66.24420000
C      -45.12820000     -37.21180000     -70.61340000
H      -45.15870000     -38.30540000     -70.47250000
H      -44.78900000     -37.07420000     -71.68460000
C      -41.96010000     -33.50230000     -69.34120000
H      -41.07410000     -33.57420000     -68.71670000
H      -41.55330000     -33.63250000     -70.37440000
S      -46.92870000     -36.72080000     -70.61990000
S      -42.76120000     -31.87670000     -69.00130000
C      -47.10170000     -35.58790000     -72.14200000
H      -46.29350000     -35.58450000     -72.84450000
H      -47.96590000     -35.73970000     -72.74460000
C      -43.31150000     -31.27130000     -70.64540000
H      -42.40160000     -31.09710000     -71.11600000
H      -43.87160000     -30.33600000     -70.47090000
C      -44.32810000     -32.18610000     -71.38400000
H      -43.85930000     -33.04410000     -71.85880000
H      -44.92690000     -32.57890000     -70.50400000
C      -47.20000000     -34.16210000     -71.60050000
H      -46.29070000     -34.05300000     -71.03310000
H      -48.06020000     -34.21480000     -70.84410000
C      -47.30700000     -33.06190000     -72.70660000
C      -48.51410000     -32.87060000     -73.33960000
C      -46.41710000     -31.93150000     -73.00480000
H      -49.40810000     -33.47480000     -73.27470000
C      -46.89730000     -31.12740000     -74.00630000
C      -45.22220000     -31.37470000     -72.42730000
C      -44.75890000     -30.26300000     -73.04000000
S      -48.52160000     -31.48560000     -74.41020000
S      -45.84060000     -29.74560000     -74.36920000
H      -43.90360000     -29.70630000     -72.75090000
