40
Properties=species:S:1:pos:R:3 #=T CELL(abcABC):=T 1.889726e+02=T 90.00000=T Traj:=T positionsangstrom=T Step:=T 0=T Bead:=T pbc="F F F"
C      -43.39370000     -34.50070000     -67.95930000
C      -42.93360000     -34.35580000     -69.26390000
C      -43.46500000     -35.24410000     -70.22570000
C      -44.40910000     -36.24560000     -69.88750000
C      -44.74080000     -36.43380000     -68.57820000
C      -44.19110000     -35.58150000     -67.61230000
H      -43.13550000     -33.73400000     -67.18970000
H      -43.12330000     -35.06140000     -71.26300000
H      -45.41690000     -37.24670000     -68.21150000
H      -44.53870000     -35.48680000     -66.58760000
C      -45.08050000     -37.14510000     -70.91720000
H      -44.85760000     -38.20970000     -70.80800000
H      -44.78510000     -36.83440000     -71.90640000
C      -41.90340000     -33.37620000     -69.62250000
H      -41.00110000     -33.66580000     -69.11140000
H      -41.67100000     -33.36520000     -70.70600000
S      -46.96570000     -37.02380000     -70.63560000
S      -42.31400000     -31.74030000     -69.07140000
C      -47.56400000     -35.58320000     -71.60650000
H      -47.74730000     -35.93270000     -72.65400000
H      -48.61610000     -35.29380000     -71.28910000
C      -43.33320000     -31.11350000     -70.46080000
H      -42.67640000     -31.17640000     -71.34000000
H      -43.40690000     -30.01650000     -70.30990000
C      -44.65900000     -31.75440000     -70.64530000
H      -44.44400000     -32.79670000     -70.85570000
H      -45.39070000     -31.68810000     -69.84460000
C      -46.57710000     -34.37710000     -71.61220000
H      -45.50420000     -34.59000000     -71.70900000
H      -46.68820000     -33.84460000     -70.64280000
C      -46.95950000     -33.35260000     -72.66360000
C      -47.85920000     -33.57810000     -73.71290000
C      -46.41580000     -32.03890000     -72.66150000
H      -48.04440000     -34.62350000     -74.09000000
C      -46.86110000     -31.26230000     -73.77540000
C      -45.35430000     -31.33550000     -71.92700000
C      -45.05180000     -30.16680000     -72.55470000
S      -48.02470000     -32.11270000     -74.79230000
S      -46.03120000     -29.80660000     -73.97450000
H      -44.37050000     -29.40380000     -72.27630000
