40
Properties=species:S:1:pos:R:3 #=T CELL(abcABC):=T 1.889726e+02=T 90.00000=T Traj:=T positionsangstrom=T Step:=T 0=T Bead:=T pbc="F F F"
C      -42.70690000     -35.14190000     -67.72450000
C      -42.78220000     -34.66320000     -69.06080000
C      -43.52130000     -35.35540000     -70.02520000
C      -44.31500000     -36.44130000     -69.69330000
C      -44.37030000     -36.76810000     -68.29340000
C      -43.65640000     -36.10260000     -67.30250000
H      -42.16990000     -34.50600000     -67.03320000
H      -43.56090000     -34.99490000     -71.06020000
H      -44.86150000     -37.68170000     -67.89890000
H      -43.77610000     -36.40260000     -66.26440000
C      -45.11130000     -37.29470000     -70.64510000
H      -45.10780000     -38.31260000     -70.34840000
H      -44.71420000     -37.20100000     -71.64690000
C      -41.98640000     -33.47660000     -69.49950000
H      -40.91750000     -33.47050000     -69.22770000
H      -42.01410000     -33.42640000     -70.59880000
S      -47.00670000     -36.83950000     -70.74230000
S      -42.67380000     -31.89960000     -69.03940000
C      -47.08140000     -35.49810000     -72.00770000
H      -46.33440000     -35.78840000     -72.79120000
H      -48.08160000     -35.83730000     -72.43920000
C      -43.40950000     -31.04360000     -70.48160000
H      -42.57120000     -30.62160000     -71.13360000
H      -43.97750000     -30.18080000     -70.12910000
C      -44.24990000     -32.02250000     -71.29720000
H      -43.53640000     -32.67730000     -71.80930000
H      -44.82010000     -32.59260000     -70.60030000
C      -47.01220000     -34.06100000     -71.49770000
H      -45.98000000     -33.83850000     -71.11030000
H      -47.65210000     -33.83230000     -70.65350000
C      -47.27850000     -33.04480000     -72.57900000
C      -48.32680000     -33.08050000     -73.42460000
C      -46.43660000     -31.91450000     -72.80670000
H      -48.94100000     -33.93970000     -73.54250000
C      -46.96200000     -31.04670000     -73.76600000
C      -45.14690000     -31.37470000     -72.36910000
C      -44.71140000     -30.33180000     -73.09720000
S      -48.38360000     -31.72780000     -74.53230000
S      -45.98750000     -29.68950000     -74.18550000
H      -43.72600000     -29.93520000     -73.06180000
