40
Properties=species:S:1:pos:R:3 #=T CELL(abcABC):=T 1.889726e+02=T 90.00000=T Traj:=T positionsangstrom=T Step:=T 0=T Bead:=T pbc="F F F"
C      -42.80080000     -35.44420000     -67.66800000
C      -42.60910000     -34.89070000     -68.92550000
C      -43.35730000     -35.51560000     -69.98390000
C      -44.20660000     -36.55950000     -69.75400000
C      -44.39440000     -37.13120000     -68.44990000
C      -43.72660000     -36.46510000     -67.43330000
H      -42.22990000     -35.10190000     -66.79170000
H      -43.21870000     -35.13570000     -70.98640000
H      -45.12690000     -37.92630000     -68.35800000
H      -43.81480000     -36.78270000     -66.42010000
C      -45.05300000     -37.15480000     -70.84250000
H      -45.17790000     -38.24270000     -70.72270000
H      -44.71800000     -36.91880000     -71.87430000
C      -41.76350000     -33.70070000     -69.25750000
H      -40.97060000     -33.65850000     -68.51550000
H      -41.27620000     -33.89880000     -70.21670000
S      -46.75880000     -36.49010000     -70.78300000
S      -42.72090000     -32.06970000     -69.06890000
C      -46.54310000     -34.93620000     -71.71370000
H      -45.49140000     -34.67130000     -71.70170000
H      -46.75370000     -35.18250000     -72.75570000
C      -43.23800000     -31.51220000     -70.75540000
H      -42.58000000     -31.76070000     -71.58100000
H      -43.27600000     -30.41260000     -70.55160000
C      -44.58110000     -32.07780000     -71.06790000
H      -44.46730000     -33.13230000     -71.17610000
H      -45.29900000     -31.85700000     -70.24080000
C      -47.50100000     -33.83390000     -71.33150000
H      -47.17230000     -33.26640000     -70.46530000
H      -48.55460000     -34.16850000     -71.22940000
C      -47.58390000     -32.70670000     -72.42880000
C      -48.75700000     -32.40360000     -73.10770000
C      -46.53680000     -31.83630000     -72.78000000
H      -49.64840000     -33.00670000     -72.86280000
C      -46.97280000     -31.08560000     -73.93170000
C      -45.22910000     -31.45170000     -72.33320000
C      -44.61930000     -30.53820000     -73.21480000
S      -48.65990000     -31.26220000     -74.37250000
S      -45.73930000     -30.11470000     -74.55140000
H      -43.59140000     -30.17170000     -73.16040000
