40
Properties=species:S:1:pos:R:3 #=T CELL(abcABC):=T 1.889726e+02=T 90.00000=T Traj:=T positionsangstrom=T Step:=T 0=T Bead:=T pbc="F F F"
C      -42.69360000     -35.23460000     -67.55020000
C      -42.62850000     -34.74800000     -68.92180000
C      -43.47190000     -35.35400000     -69.84530000
C      -44.28320000     -36.45280000     -69.47720000
C      -44.22790000     -37.03780000     -68.17570000
C      -43.36260000     -36.47140000     -67.27060000
H      -41.91390000     -34.89140000     -66.90210000
H      -43.45830000     -35.06340000     -70.89970000
H      -44.85850000     -37.81070000     -67.76820000
H      -43.34740000     -36.88020000     -66.28220000
C      -45.05720000     -37.16770000     -70.49980000
H      -45.19250000     -38.24190000     -70.13430000
H      -44.45960000     -37.21770000     -71.45930000
C      -41.87160000     -33.42400000     -69.22050000
H      -41.06670000     -33.25330000     -68.45250000
H      -41.44530000     -33.36990000     -70.25970000
S      -46.80190000     -36.59460000     -70.80080000
S      -42.94240000     -31.97280000     -69.07320000
C      -46.70840000     -35.20650000     -72.01640000
H      -45.65820000     -34.94480000     -72.00050000
H      -47.09830000     -35.56920000     -72.93170000
C      -43.28800000     -31.49650000     -70.78400000
H      -42.32010000     -31.53070000     -71.36930000
H      -43.63720000     -30.49040000     -70.68950000
C      -44.41980000     -32.29250000     -71.44180000
H      -43.98390000     -33.14230000     -72.02700000
H      -45.05270000     -32.81580000     -70.73690000
C      -47.54810000     -33.99340000     -71.52290000
H      -47.30060000     -33.51160000     -70.58230000
H      -48.61800000     -34.24190000     -71.40520000
C      -47.59360000     -32.83560000     -72.52340000
C      -48.67040000     -32.66300000     -73.28440000
C      -46.56090000     -31.82530000     -72.89190000
H      -49.62940000     -33.17590000     -73.19950000
C      -46.98140000     -30.99000000     -73.89390000
C      -45.18170000     -31.48690000     -72.42940000
C      -44.66250000     -30.48790000     -73.17680000
S      -48.55650000     -31.40400000     -74.42630000
S      -45.69660000     -29.96620000     -74.48310000
H      -43.68300000     -30.01810000     -72.90600000
