40
Properties=species:S:1:pos:R:3 #=T CELL(abcABC):=T 1.889726e+02=T 90.00000=T Traj:=T positionsangstrom=T Step:=T 0=T Bead:=T pbc="F F F"
C      -44.06950000     -30.54440000     -71.40510000
C      -42.86280000     -31.27740000     -71.27990000
C      -42.50050000     -31.77500000     -70.03100000
C      -43.35330000     -31.67060000     -68.96650000
C      -44.50480000     -30.90930000     -69.09210000
C      -44.91840000     -30.41570000     -70.31140000
H      -44.30050000     -30.08380000     -72.27800000
H      -41.63940000     -32.37560000     -69.95290000
H      -45.21080000     -30.89520000     -68.25250000
H      -45.86010000     -29.81240000     -70.43410000
C      -43.07930000     -32.37120000     -67.70080000
H      -43.62430000     -31.88350000     -66.81750000
H      -42.04250000     -32.49550000     -67.49300000
C      -41.99900000     -31.53590000     -72.50130000
H      -42.30070000     -30.89920000     -73.28770000
H      -40.94490000     -31.40640000     -72.30830000
S      -43.62840000     -34.18210000     -67.93520000
S      -42.24700000     -33.28720000     -73.20640000
C      -45.38210000     -34.02050000     -68.60610000
H      -45.86480000     -34.66470000     -67.89070000
H      -45.76740000     -32.92820000     -68.29800000
C      -43.96200000     -33.26490000     -73.76840000
H      -44.12060000     -33.02500000     -74.85370000
H      -44.46720000     -32.36990000     -73.30370000
C      -44.73360000     -34.54080000     -73.44570000
H      -44.32930000     -35.32550000     -73.98080000
H      -44.41390000     -34.86330000     -72.40970000
C      -45.37680000     -34.47860000     -70.04310000
H      -45.06740000     -35.57510000     -70.04570000
H      -44.56860000     -33.99670000     -70.63540000
C      -46.68770000     -34.32740000     -70.77300000
C      -47.89540000     -34.42430000     -70.09340000
C      -46.94890000     -34.33370000     -72.18620000
H      -48.00900000     -34.65410000     -69.01370000
C      -48.33110000     -34.38400000     -72.50100000
C      -46.19880000     -34.36630000     -73.42970000
C      -47.04930000     -34.53450000     -74.54090000
S      -49.27530000     -34.67150000     -71.07440000
S      -48.71650000     -34.55410000     -74.19980000
H      -46.68370000     -34.52760000     -75.56160000
