40
Properties=species:S:1:pos:R:3 #=T CELL(abcABC):=T 1.889726e+02=T 90.00000=T Traj:=T positionsangstrom=T Step:=T 0=T Bead:=T pbc="F F F"
C      -44.02280000     -33.91030000     -67.95380000
C      -43.18530000     -34.41900000     -68.95350000
C      -43.53160000     -35.64070000     -69.64290000
C      -44.73760000     -36.25980000     -69.45620000
C      -45.62640000     -35.74770000     -68.42090000
C      -45.21200000     -34.59960000     -67.73550000
H      -43.82900000     -32.96910000     -67.48410000
H      -42.77170000     -36.02170000     -70.31980000
H      -46.43010000     -36.40390000     -68.19870000
H      -45.91350000     -34.17120000     -67.12790000
C      -45.12960000     -37.54950000     -70.09530000
H      -45.55990000     -38.21280000     -69.37800000
H      -44.20550000     -38.07480000     -70.58490000
C      -41.87230000     -33.68950000     -69.18640000
H      -41.16040000     -33.71980000     -68.36050000
H      -41.26380000     -34.28540000     -69.89930000
S      -46.48570000     -37.17630000     -71.29370000
S      -42.08230000     -31.89860000     -69.55640000
C      -45.66130000     -35.93120000     -72.32010000
H      -44.56750000     -36.16420000     -72.48830000
H      -46.04810000     -36.05810000     -73.38500000
C      -43.30380000     -31.75980000     -71.03350000
H      -43.21870000     -32.63430000     -71.76040000
H      -42.96460000     -30.92490000     -71.65650000
C      -44.78580000     -31.45980000     -70.58710000
H      -45.26860000     -32.40020000     -70.13180000
H      -44.78000000     -30.75880000     -69.74420000
C      -45.76800000     -34.36690000     -71.86510000
H      -44.71870000     -34.19630000     -71.57600000
H      -46.34900000     -34.25790000     -70.93230000
C      -46.31130000     -33.37960000     -72.86670000
C      -47.10800000     -33.76940000     -73.93610000
C      -46.25220000     -31.93310000     -72.72990000
H      -47.37420000     -34.75890000     -74.12600000
C      -46.95140000     -31.27980000     -73.77510000
C      -45.68010000     -31.06720000     -71.69380000
C      -45.97980000     -29.73390000     -71.89030000
S      -47.71470000     -32.38470000     -74.86100000
S      -47.01230000     -29.52080000     -73.41550000
H      -45.91110000     -28.81550000     -71.27260000
