40
Properties=species:S:1:pos:R:3 #=T CELL(abcABC):=T 1.889726e+02=T 90.00000=T Traj:=T positionsangstrom=T Step:=T 0=T Bead:=T pbc="F F F"
C      -43.62780000     -34.21970000     -67.76700000
C      -43.11390000     -34.54190000     -69.00320000
C      -43.72310000     -35.59160000     -69.72640000
C      -44.81170000     -36.34070000     -69.28940000
C      -45.24370000     -36.09110000     -67.97650000
C      -44.67430000     -35.03160000     -67.19170000
H      -43.15360000     -33.37040000     -67.18410000
H      -43.36580000     -35.80030000     -70.73550000
H      -45.92210000     -36.76200000     -67.48040000
H      -45.25060000     -34.66720000     -66.31000000
C      -45.26590000     -37.53570000     -70.15840000
H      -45.54290000     -38.38900000     -69.55630000
H      -44.50950000     -37.82590000     -70.84120000
C      -42.08890000     -33.74000000     -69.65760000
H      -41.17230000     -34.14930000     -69.31340000
H      -42.09200000     -33.83100000     -70.76270000
S      -46.69000000     -37.14300000     -71.31410000
S      -42.22010000     -31.87790000     -69.46830000
C      -45.92570000     -35.89690000     -72.47100000
H      -44.94310000     -36.22540000     -72.60670000
H      -46.32770000     -36.09460000     -73.45670000
C      -43.23330000     -31.50270000     -70.93160000
H      -42.96060000     -32.23890000     -71.72180000
H      -42.97100000     -30.54080000     -71.27910000
C      -44.70930000     -31.52710000     -70.61700000
H      -44.94440000     -32.55950000     -70.21810000
H      -44.83970000     -30.88680000     -69.74260000
C      -46.00770000     -34.46090000     -71.92380000
H      -45.04350000     -34.14910000     -71.59530000
H      -46.63970000     -34.45390000     -71.02250000
C      -46.50090000     -33.33240000     -72.85040000
C      -47.40360000     -33.62160000     -73.85470000
C      -46.30310000     -31.92280000     -72.70790000
H      -47.78230000     -34.54450000     -74.21160000
C      -46.88960000     -31.19850000     -73.70370000
C      -45.49020000     -31.05320000     -71.85620000
C      -45.69540000     -29.70120000     -72.16260000
S      -47.87960000     -32.19240000     -74.79660000
S      -46.64570000     -29.44650000     -73.62260000
H      -45.30470000     -28.85170000     -71.49960000
