40
Properties=species:S:1:pos:R:3 #=T CELL(abcABC):=T 1.889726e+02=T 90.00000=T Traj:=T positionsangstrom=T Step:=T 0=T Bead:=T pbc="F F F"
C      -41.66110000     -31.70270000     -73.00070000
C      -42.76940000     -31.12730000     -72.37900000
C      -44.03640000     -31.24480000     -72.91550000
C      -44.24090000     -32.07980000     -74.03670000
C      -43.12670000     -32.65570000     -74.68910000
C      -41.82240000     -32.50390000     -74.12820000
H      -40.71770000     -31.62190000     -72.49680000
H      -44.85600000     -30.89040000     -72.33180000
H      -43.20550000     -33.41840000     -75.48680000
H      -40.99140000     -32.78720000     -74.68870000
C      -45.56670000     -32.10530000     -74.68000000
H      -45.54320000     -31.62680000     -75.71440000
H      -46.15810000     -31.51140000     -74.05870000
C      -42.70010000     -30.44340000     -71.06030000
H      -41.69070000     -30.24260000     -70.76480000
H      -43.27850000     -29.57810000     -71.02110000
S      -46.21340000     -33.78340000     -74.99410000
S      -43.44830000     -31.45240000     -69.64180000
C      -46.73350000     -34.01100000     -73.24790000
H      -46.31530000     -33.14040000     -72.76450000
H      -47.77040000     -33.82460000     -73.20770000
C      -42.95510000     -33.17480000     -69.97730000
H      -42.40220000     -33.49110000     -69.06510000
H      -42.19520000     -32.99070000     -70.72610000
C      -43.91700000     -34.20980000     -70.30110000
H      -44.32150000     -34.06540000     -71.35550000
H      -43.43970000     -35.23240000     -70.23270000
C      -46.29690000     -35.24610000     -72.55290000
H      -45.20640000     -35.33410000     -72.48780000
H      -46.65800000     -36.09980000     -73.12080000
C      -46.96880000     -35.40530000     -71.17960000
C      -48.30120000     -35.73750000     -71.03830000
C      -46.49830000     -34.75070000     -69.95960000
H      -49.01290000     -36.28970000     -71.67940000
C      -47.42570000     -34.64330000     -68.88840000
C      -45.23110000     -34.23880000     -69.47570000
C      -45.32480000     -33.63810000     -68.29320000
S      -48.93090000     -35.37360000     -69.42340000
S      -46.90610000     -33.82120000     -67.49410000
H      -44.51800000     -33.22540000     -67.69670000
