40
Properties=species:S:1:pos:R:3 #=T CELL(abcABC):=T 1.889726e+02=T 90.00000=T Traj:=T positionsangstrom=T Step:=T 0=T Bead:=T pbc="F F F"
C      -44.35680000     -34.07360000     -67.61510000
C      -43.38560000     -34.29870000     -68.56730000
C      -43.52290000     -35.34160000     -69.47770000
C      -44.70420000     -36.06940000     -69.50560000
C      -45.73730000     -35.81430000     -68.60220000
C      -45.54490000     -34.87440000     -67.56110000
H      -44.03860000     -33.44410000     -66.74530000
H      -42.61900000     -35.56250000     -70.06560000
H      -46.68060000     -36.38690000     -68.57310000
H      -46.17060000     -34.82880000     -66.63930000
C      -44.74030000     -37.20490000     -70.53730000
H      -44.63310000     -38.17550000     -70.01030000
H      -43.93260000     -37.26950000     -71.24710000
C      -42.12610000     -33.51430000     -68.51240000
H      -41.87170000     -33.27150000     -67.40580000
H      -41.27760000     -34.09940000     -68.77150000
S      -46.39590000     -37.34110000     -71.42860000
S      -42.16440000     -31.92510000     -69.42870000
C      -46.25070000     -35.89510000     -72.64930000
H      -45.43270000     -36.19370000     -73.37270000
H      -47.13790000     -36.00680000     -73.20140000
C      -43.26370000     -31.99230000     -70.94140000
H      -43.08680000     -32.91440000     -71.42520000
H      -43.01310000     -31.22780000     -71.69410000
C      -44.76320000     -31.81470000     -70.54580000
H      -45.24090000     -32.73470000     -70.25800000
H      -44.85780000     -31.09520000     -69.73100000
C      -46.02570000     -34.51700000     -72.11250000
H      -44.97110000     -34.30240000     -71.80310000
H      -46.66280000     -34.34910000     -71.21630000
C      -46.45280000     -33.41650000     -73.01590000
C      -47.12870000     -33.59760000     -74.15070000
C      -46.17250000     -32.03540000     -72.75740000
H      -47.43070000     -34.57700000     -74.46850000
C      -46.74380000     -31.23760000     -73.71020000
C      -45.56440000     -31.20790000     -71.66870000
C      -45.73540000     -29.84910000     -71.94120000
S      -47.66730000     -32.07890000     -74.92380000
S      -46.58790000     -29.51930000     -73.46320000
H      -45.42360000     -29.00810000     -71.27530000
