40
Properties=species:S:1:pos:R:3 #=T CELL(abcABC):=T 1.889726e+02=T 90.00000=T Traj:=T positionsangstrom=T Step:=T 0=T Bead:=T pbc="F F F"
C      -47.35960000     -36.23390000     -71.32810000
C      -47.14300000     -36.05020000     -72.67800000
C      -47.62860000     -34.97880000     -73.36400000
C      -48.29810000     -33.90120000     -72.68630000
C      -48.51980000     -34.10290000     -71.28710000
C      -48.03390000     -35.24110000     -70.63860000
H      -46.93850000     -37.14240000     -70.89350000
H      -47.45540000     -35.02490000     -74.49560000
H      -48.93260000     -33.30760000     -70.61990000
H      -48.23050000     -35.35850000     -69.59780000
C      -48.79720000     -32.73010000     -73.45510000
H      -49.83750000     -32.51880000     -73.08750000
H      -48.78490000     -32.93800000     -74.47570000
C      -46.33310000     -36.95350000     -73.51260000
H      -46.37370000     -38.04620000     -73.34360000
H      -46.45620000     -36.75190000     -74.56650000
S      -47.83110000     -31.09600000     -73.49800000
S      -44.47080000     -36.56200000     -73.26490000
C      -46.91360000     -31.11320000     -71.80690000
H      -46.51870000     -30.12920000     -71.74460000
H      -47.53980000     -31.21590000     -71.01730000
C      -44.28980000     -35.41030000     -71.71510000
H      -44.18410000     -35.98110000     -70.75860000
H      -45.24130000     -34.88490000     -71.61590000
C      -43.12900000     -34.44730000     -71.92680000
H      -42.25610000     -35.03150000     -72.16170000
H      -43.30650000     -33.78960000     -72.77350000
C      -45.72210000     -32.10070000     -71.65250000
H      -45.17790000     -32.33140000     -72.57480000
H      -45.91890000     -33.12380000     -71.25370000
C      -44.66020000     -31.50960000     -70.71890000
C      -44.86720000     -30.44120000     -69.92170000
C      -43.56210000     -32.33930000     -70.27950000
H      -45.71320000     -29.74580000     -70.09900000
C      -43.01180000     -31.81220000     -69.11360000
C      -42.94980000     -33.58690000     -70.59240000
C      -42.07960000     -34.08100000     -69.65670000
S      -43.74050000     -30.34700000     -68.57690000
S      -41.81710000     -32.86010000     -68.38460000
H      -41.26430000     -34.78070000     -69.93440000
