40
Properties=species:S:1:pos:R:3 #=T CELL(abcABC):=T 1.889726e+02=T 90.00000=T Traj:=T positionsangstrom=T Step:=T 0=T Bead:=T pbc="F F F"
C      -47.57070000     -36.30130000     -71.55820000
C      -47.09000000     -35.91920000     -72.84510000
C      -47.48620000     -34.69550000     -73.41660000
C      -48.35060000     -33.78650000     -72.68590000
C      -48.62700000     -34.17150000     -71.34900000
C      -48.26730000     -35.41500000     -70.78310000
H      -47.27070000     -37.29020000     -71.22580000
H      -47.11390000     -34.47930000     -74.46790000
H      -49.24030000     -33.48850000     -70.75570000
H      -48.66860000     -35.70780000     -69.81140000
C      -48.96840000     -32.50430000     -73.24030000
H      -49.78010000     -32.19190000     -72.61880000
H      -49.39270000     -32.69960000     -74.27250000
C      -46.15900000     -36.95450000     -73.43610000
H      -46.49510000     -37.91190000     -72.96370000
H      -46.41050000     -37.01560000     -74.48350000
S      -47.82600000     -31.09450000     -73.41820000
S      -44.35450000     -36.57620000     -73.28380000
C      -46.95420000     -30.92780000     -71.84930000
H      -46.66750000     -29.81630000     -71.68890000
H      -47.57210000     -31.25950000     -70.95630000
C      -44.28260000     -35.59070000     -71.76300000
H      -43.95980000     -36.30470000     -70.94960000
H      -45.29720000     -35.35730000     -71.59200000
C      -43.33620000     -34.37740000     -71.88460000
H      -42.42240000     -34.81360000     -72.35770000
H      -43.77610000     -33.68310000     -72.57120000
C      -45.62650000     -31.80430000     -71.76250000
H      -45.03210000     -31.55040000     -72.66260000
H      -45.93570000     -32.81270000     -71.86920000
C      -44.79040000     -31.59370000     -70.53680000
C      -44.94110000     -30.52060000     -69.66170000
C      -43.67710000     -32.44510000     -70.17440000
H      -45.67280000     -29.73580000     -69.87410000
C      -42.94410000     -31.85880000     -69.05750000
C      -43.01550000     -33.71350000     -70.57200000
C      -41.89650000     -34.04810000     -69.85470000
S      -43.65760000     -30.39600000     -68.51120000
S      -41.70560000     -32.98350000     -68.46910000
H      -41.30650000     -34.92420000     -70.07600000
