40
Properties=species:S:1:pos:R:3 #=T CELL(abcABC):=T 1.889726e+02=T 90.00000=T Traj:=T positionsangstrom=T Step:=T 0=T Bead:=T pbc="F F F"
C      -44.21890000     -34.65420000     -67.18120000
C      -43.32230000     -34.53000000     -68.26880000
C      -43.50560000     -35.41570000     -69.34360000
C      -44.45600000     -36.41380000     -69.41400000
C      -45.27690000     -36.62820000     -68.27190000
C      -45.19230000     -35.71880000     -67.21630000
H      -44.22550000     -33.92190000     -66.41250000
H      -42.93010000     -35.29340000     -70.25100000
H      -46.11330000     -37.40290000     -68.41690000
H      -45.94080000     -35.79930000     -66.42300000
C      -44.58400000     -37.19710000     -70.63200000
H      -44.49030000     -38.27510000     -70.51200000
H      -43.80480000     -36.84120000     -71.28870000
C      -42.26280000     -33.41670000     -68.34230000
H      -41.80760000     -33.37540000     -67.34280000
H      -41.60370000     -33.68250000     -69.08740000
S      -46.21250000     -36.90090000     -71.56680000
S      -43.11270000     -31.68120000     -68.56460000
C      -46.04010000     -35.13320000     -72.01370000
H      -45.18250000     -34.67590000     -71.48660000
H      -45.74190000     -35.03860000     -73.08890000
C      -43.40150000     -31.39140000     -70.31610000
H      -42.55200000     -31.73420000     -70.93420000
H      -43.43950000     -30.24600000     -70.37590000
C      -44.73170000     -31.89950000     -70.88810000
H      -44.59390000     -33.05280000     -71.00450000
H      -45.57570000     -31.70530000     -70.17410000
C      -47.23740000     -34.19110000     -71.73270000
H      -47.06320000     -33.75280000     -70.75450000
H      -48.12000000     -34.88130000     -71.68300000
C      -47.24000000     -33.17760000     -72.85270000
C      -48.08540000     -33.21690000     -73.95920000
C      -46.27780000     -32.06850000     -73.03220000
H      -48.92270000     -33.84860000     -74.22190000
C      -46.50310000     -31.32170000     -74.26700000
C      -45.24440000     -31.42510000     -72.25920000
C      -44.79590000     -30.25930000     -72.86350000
S      -47.83350000     -31.95270000     -75.12060000
S      -45.54550000     -29.91570000     -74.43760000
H      -44.04120000     -29.54330000     -72.40270000
