40
Properties=species:S:1:pos:R:3 #=T CELL(abcABC):=T 1.889726e+02=T 90.00000=T Traj:=T positionsangstrom=T Step:=T 0=T Bead:=T pbc="F F F"
C      -43.83760000     -34.70570000     -67.20890000
C      -43.31710000     -34.41640000     -68.49100000
C      -43.65070000     -35.18840000     -69.59500000
C      -44.48990000     -36.28560000     -69.45650000
C      -45.07280000     -36.52340000     -68.21030000
C      -44.73160000     -35.79730000     -67.07770000
H      -43.51980000     -34.17260000     -66.31690000
H      -43.11170000     -35.07480000     -70.51800000
H      -45.87110000     -37.30390000     -68.20510000
H      -45.11680000     -36.11720000     -66.16280000
C      -44.82390000     -37.22050000     -70.55850000
H      -44.75370000     -38.14000000     -70.05880000
H      -44.07480000     -37.15220000     -71.37400000
C      -42.58730000     -33.10270000     -68.61700000
H      -41.93130000     -33.04900000     -67.74320000
H      -42.01600000     -33.02600000     -69.52330000
S      -46.55660000     -36.92590000     -71.18560000
S      -43.83930000     -31.69170000     -68.50080000
C      -46.39100000     -35.43040000     -72.22700000
H      -45.32070000     -35.36630000     -72.39960000
H      -46.86940000     -35.73660000     -73.13560000
C      -43.76960000     -31.02220000     -70.19110000
H      -42.75310000     -30.59930000     -70.39580000
H      -44.43840000     -30.21600000     -70.31470000
C      -44.14400000     -32.07160000     -71.27270000
H      -43.22710000     -32.64340000     -71.63250000
H      -44.86250000     -32.75170000     -70.84150000
C      -46.99640000     -34.15240000     -71.66110000
H      -46.48280000     -33.81880000     -70.75690000
H      -48.02400000     -34.31740000     -71.31380000
C      -47.07860000     -33.01700000     -72.66960000
C      -48.14160000     -32.97610000     -73.55760000
C      -45.95140000     -32.11290000     -73.04810000
H      -49.12700000     -33.52930000     -73.32040000
C      -46.37630000     -31.39560000     -74.23090000
C      -44.77370000     -31.53280000     -72.51190000
C      -44.20730000     -30.54190000     -73.32030000
S      -47.91330000     -31.84260000     -74.85150000
S      -45.20040000     -30.20430000     -74.71870000
H      -43.28170000     -29.99310000     -73.10390000
