40
Properties=species:S:1:pos:R:3 #=T CELL(abcABC):=T 1.889726e+02=T 90.00000=T Traj:=T positionsangstrom=T Step:=T 0=T Bead:=T pbc="F F F"
C      -44.15440000     -34.70600000     -67.14280000
C      -43.51500000     -34.37570000     -68.31840000
C      -43.63330000     -35.22360000     -69.41670000
C      -44.49420000     -36.34110000     -69.37060000
C      -44.97150000     -36.79560000     -68.13990000
C      -44.79860000     -35.96250000     -66.97020000
H      -44.05200000     -33.92200000     -66.37510000
H      -43.02440000     -35.05560000     -70.27900000
H      -45.45660000     -37.71140000     -68.14910000
H      -45.25400000     -36.30330000     -66.06370000
C      -44.67700000     -37.24100000     -70.61100000
H      -44.51220000     -38.28480000     -70.27750000
H      -43.88340000     -36.90800000     -71.33920000
C      -42.62890000     -33.18010000     -68.38670000
H      -42.17270000     -33.13900000     -67.41390000
H      -41.79880000     -33.26500000     -69.13000000
S      -46.40590000     -36.99550000     -71.18280000
S      -43.47640000     -31.53010000     -68.62520000
C      -46.14160000     -35.45790000     -72.27590000
H      -45.07860000     -35.21090000     -72.15160000
H      -46.30260000     -35.74780000     -73.32350000
C      -43.35230000     -31.38700000     -70.49050000
H      -42.29670000     -31.80640000     -70.69790000
H      -43.58410000     -30.35310000     -70.71830000
C      -44.43710000     -32.17680000     -71.21120000
H      -44.14900000     -33.18720000     -71.32820000
H      -45.38260000     -32.19640000     -70.61880000
C      -47.10330000     -34.28290000     -71.92690000
H      -46.67800000     -33.96540000     -70.90530000
H      -48.05450000     -34.71840000     -71.78640000
C      -47.11560000     -33.23060000     -73.06380000
C      -48.19110000     -33.03710000     -73.90090000
C      -46.15860000     -32.12940000     -73.24390000
H      -49.06280000     -33.56340000     -74.06040000
C      -46.50390000     -31.18880000     -74.15300000
C      -44.95660000     -31.65930000     -72.48390000
C      -44.45050000     -30.54290000     -73.04230000
S      -48.00100000     -31.58930000     -74.91650000
S      -45.28740000     -29.94280000     -74.43020000
H      -43.59090000     -29.98660000     -72.84240000
