40
Properties=species:S:1:pos:R:3 #=T CELL(abcABC):=T 1.889726e+02=T 90.00000=T Traj:=T positionsangstrom=T Step:=T 0=T Bead:=T pbc="F F F"
C      -47.66820000     -36.34320000     -71.58630000
C      -47.07440000     -35.82570000     -72.73700000
C      -47.47630000     -34.50520000     -73.25760000
C      -48.42110000     -33.77240000     -72.62030000
C      -49.00220000     -34.34680000     -71.51070000
C      -48.71810000     -35.59440000     -70.97960000
H      -47.51860000     -37.32200000     -71.14190000
H      -47.07000000     -34.07390000     -74.13720000
H      -49.75510000     -33.73960000     -71.03880000
H      -49.16400000     -35.90170000     -70.03510000
C      -48.97760000     -32.52490000     -73.23140000
H      -49.85640000     -32.17950000     -72.71540000
H      -49.30410000     -32.67850000     -74.27140000
C      -46.15770000     -36.67130000     -73.54440000
H      -46.40670000     -37.71760000     -73.27150000
H      -46.27900000     -36.53090000     -74.63050000
S      -47.67190000     -31.11650000     -73.35850000
S      -44.34890000     -36.53700000     -73.33360000
C      -46.78720000     -30.90620000     -71.69560000
H      -46.64920000     -29.85040000     -71.66260000
H      -47.58750000     -31.22480000     -71.00170000
C      -44.09760000     -35.69890000     -71.71750000
H      -43.38230000     -36.19730000     -71.05690000
H      -45.05270000     -35.61110000     -71.16040000
C      -43.47850000     -34.30400000     -71.95360000
H      -42.67000000     -34.25540000     -72.67440000
H      -44.24240000     -33.67850000     -72.39180000
C      -45.54300000     -31.76090000     -71.79630000
H      -44.98730000     -31.55510000     -72.73810000
H      -45.92200000     -32.76840000     -71.81740000
C      -44.65930000     -31.52310000     -70.56980000
C      -44.71900000     -30.41500000     -69.73670000
C      -43.65850000     -32.45410000     -70.17360000
H      -45.30820000     -29.50220000     -69.77820000
C      -43.01260000     -31.96840000     -69.02950000
C      -43.04300000     -33.67060000     -70.65180000
C      -41.89640000     -34.00390000     -69.97050000
S      -43.68900000     -30.57780000     -68.29460000
S      -41.66640000     -32.98820000     -68.56120000
H      -41.32850000     -34.90610000     -70.00570000
