40
Properties=species:S:1:pos:R:3 #=T CELL(abcABC):=T 1.889726e+02=T 90.00000=T Traj:=T positionsangstrom=T Step:=T 0=T Bead:=T pbc="F F F"
C      -41.19210000     -34.11830000     -71.13430000
C      -42.03430000     -33.02290000     -70.86290000
C      -42.67800000     -32.38960000     -71.90840000
C      -42.51770000     -32.82820000     -73.27430000
C      -41.68370000     -33.87460000     -73.49650000
C      -40.99380000     -34.46500000     -72.46410000
H      -40.73420000     -34.56790000     -70.23890000
H      -43.41320000     -31.62670000     -71.83510000
H      -41.63650000     -34.38110000     -74.49220000
H      -40.29880000     -35.36660000     -72.59590000
C      -43.29300000     -32.16960000     -74.32030000
H      -42.53930000     -31.87130000     -75.01940000
H      -43.76000000     -31.21240000     -74.04150000
C      -42.13270000     -32.45970000     -69.47350000
H      -41.34590000     -32.89500000     -68.83720000
H      -41.94920000     -31.36450000     -69.39830000
S      -44.46790000     -33.25660000     -75.36360000
S      -43.86650000     -32.78590000     -68.68480000
C      -46.11610000     -33.20420000     -74.48630000
H      -46.58360000     -32.20990000     -74.56740000
H      -46.76010000     -33.98280000     -75.02910000
C      -44.11760000     -34.55950000     -68.87560000
H      -44.48750000     -34.97300000     -67.91860000
H      -43.15660000     -35.01030000     -69.06240000
C      -45.08460000     -34.94020000     -70.04970000
H      -44.69020000     -34.46310000     -70.93260000
H      -44.95070000     -36.00380000     -70.31390000
C      -46.12900000     -33.69350000     -72.98880000
H      -45.19550000     -33.20720000     -72.54870000
H      -45.90100000     -34.76920000     -72.97240000
C      -47.24230000     -33.36830000     -72.07530000
C      -48.35000000     -32.73310000     -72.46890000
C      -47.32300000     -33.73100000     -70.66480000
H      -48.59950000     -32.39740000     -73.45030000
C      -48.59020000     -33.32400000     -70.08300000
C      -46.45620000     -34.40790000     -69.71070000
C      -47.07350000     -34.43540000     -68.45810000
S      -49.59550000     -32.53600000     -71.21930000
S      -48.70760000     -33.74440000     -68.41640000
H      -46.65110000     -34.84150000     -67.54320000
