40
Properties=species:S:1:pos:R:3 #=T CELL(abcABC):=T 1.889726e+02=T 90.00000=T Traj:=T positionsangstrom=T Step:=T 0=T Bead:=T pbc="F F F"
C      -43.41240000     -34.87550000     -67.21780000
C      -43.07690000     -34.47300000     -68.49490000
C      -43.54920000     -35.21520000     -69.59640000
C      -44.53280000     -36.20640000     -69.46090000
C      -44.98280000     -36.44460000     -68.15280000
C      -44.44200000     -35.85630000     -67.05400000
H      -43.02870000     -34.35160000     -66.39030000
H      -43.01350000     -34.89950000     -70.53740000
H      -45.80290000     -37.16730000     -68.00470000
H      -44.85470000     -36.12880000     -66.09110000
C      -44.99180000     -37.12300000     -70.55160000
H      -45.09510000     -38.09710000     -70.10460000
H      -44.30570000     -37.16970000     -71.41690000
C      -42.22330000     -33.26740000     -68.77540000
H      -41.30980000     -33.12590000     -68.19530000
H      -41.86680000     -33.23570000     -69.84030000
S      -46.68940000     -36.85890000     -71.40280000
S      -43.29760000     -31.80990000     -68.51010000
C      -46.40720000     -35.21970000     -72.25890000
H      -45.36670000     -35.03390000     -72.06770000
H      -46.52210000     -35.41880000     -73.26900000
C      -44.51360000     -31.68000000     -69.92680000
H      -44.52730000     -30.60230000     -70.09050000
H      -45.52860000     -31.93160000     -69.49130000
C      -44.19250000     -32.45990000     -71.23070000
H      -43.12320000     -32.56730000     -71.36260000
H      -44.56460000     -33.46210000     -71.12890000
C      -47.30310000     -34.13250000     -71.78140000
H      -46.95530000     -33.75090000     -70.81180000
H      -48.27260000     -34.49880000     -71.72530000
C      -47.29460000     -32.90330000     -72.79220000
C      -48.26100000     -32.86050000     -73.77900000
C      -46.22750000     -31.97890000     -72.96850000
H      -49.18010000     -33.38650000     -73.80080000
C      -46.50700000     -31.17450000     -74.08820000
C      -44.93780000     -31.78370000     -72.43590000
C      -44.29200000     -30.77860000     -73.14520000
S      -47.95430000     -31.50260000     -74.92650000
S      -45.20690000     -30.07170000     -74.49250000
H      -43.35090000     -30.38520000     -72.71040000
