40
Properties=species:S:1:pos:R:3 #=T CELL(abcABC):=T 1.889726e+02=T 90.00000=T Traj:=T positionsangstrom=T Step:=T 0=T Bead:=T pbc="F F F"
C      -43.89980000     -34.29950000     -67.41750000
C      -43.27140000     -34.16160000     -68.59800000
C      -43.56050000     -35.10050000     -69.58330000
C      -44.57980000     -36.07520000     -69.43060000
C      -45.30760000     -36.06670000     -68.19670000
C      -44.89080000     -35.27110000     -67.19100000
H      -43.42750000     -33.88460000     -66.54590000
H      -42.97720000     -34.95720000     -70.46090000
H      -46.23620000     -36.71010000     -68.18840000
H      -45.44960000     -35.37680000     -66.23570000
C      -44.82100000     -37.11990000     -70.47380000
H      -44.70560000     -38.15450000     -70.01790000
H      -43.90120000     -37.15740000     -71.16150000
C      -42.16930000     -33.18770000     -68.88420000
H      -41.51620000     -33.21700000     -68.00180000
H      -41.60960000     -33.52790000     -69.73220000
S      -46.39750000     -37.09520000     -71.46840000
S      -42.84750000     -31.42960000     -69.05960000
C      -46.19170000     -35.48400000     -72.32960000
H      -45.17470000     -35.33660000     -72.58360000
H      -46.60320000     -35.60890000     -73.35080000
C      -44.33000000     -31.87310000     -70.18370000
H      -45.00830000     -30.95630000     -70.29070000
H      -45.01340000     -32.55520000     -69.58130000
C      -43.94050000     -32.45960000     -71.62780000
H      -42.91300000     -32.15900000     -71.72860000
H      -44.02180000     -33.54580000     -71.56280000
C      -46.73810000     -34.35570000     -71.53590000
H      -46.03780000     -34.01970000     -70.72210000
H      -47.59160000     -34.72190000     -70.99470000
C      -47.10580000     -33.20100000     -72.44450000
C      -48.33450000     -32.99830000     -73.01720000
C      -46.21230000     -32.17500000     -72.91010000
H      -49.23310000     -33.65930000     -72.84960000
C      -46.71670000     -31.40020000     -73.91000000
C      -44.79530000     -31.96280000     -72.68830000
C      -44.33920000     -30.94180000     -73.49500000
S      -48.43510000     -31.63610000     -74.16730000
S      -45.50930000     -30.16250000     -74.54580000
H      -43.26060000     -30.67920000     -73.45740000
