40
Properties=species:S:1:pos:R:3 #=T CELL(abcABC):=T 1.889726e+02=T 90.00000=T Traj:=T positionsangstrom=T Step:=T 0=T Bead:=T pbc="F F F"
C      -44.87500000     -34.16910000     -67.33720000
C      -43.87320000     -34.20690000     -68.31440000
C      -43.94350000     -35.28870000     -69.22770000
C      -45.01240000     -36.22610000     -69.17050000
C      -45.97360000     -36.16420000     -68.16010000
C      -45.89040000     -35.16920000     -67.22710000
H      -44.84250000     -33.27410000     -66.55410000
H      -43.17790000     -35.32060000     -69.95580000
H      -46.69630000     -36.95500000     -68.22740000
H      -46.70750000     -35.16560000     -66.48990000
C      -44.93320000     -37.40530000     -70.12830000
H      -45.20700000     -38.34780000     -69.72680000
H      -43.93840000     -37.51100000     -70.59020000
C      -42.76600000     -33.17140000     -68.57570000
H      -42.12230000     -33.03820000     -67.68020000
H      -42.20830000     -33.76800000     -69.32800000
S      -46.06780000     -37.13490000     -71.60430000
S      -43.05830000     -31.41180000     -68.82470000
C      -45.62030000     -35.42060000     -72.21420000
H      -44.50690000     -35.23980000     -72.11910000
H      -45.70760000     -35.35430000     -73.36140000
C      -44.24450000     -31.26430000     -70.20030000
H      -44.36480000     -30.18380000     -70.37550000
H      -45.26560000     -31.66920000     -69.99770000
C      -43.69770000     -31.83850000     -71.48590000
H      -42.68280000     -31.40290000     -71.61150000
H      -43.56530000     -32.89000000     -71.40110000
C      -46.37760000     -34.22780000     -71.52310000
H      -45.72570000     -33.76000000     -70.75060000
H      -47.27860000     -34.64760000     -71.07250000
C      -46.72090000     -33.12580000     -72.51370000
C      -47.91980000     -33.25280000     -73.16070000
C      -45.75530000     -32.20810000     -73.10890000
H      -48.67740000     -34.01630000     -72.97170000
C      -46.33200000     -31.64250000     -74.23010000
C      -44.58410000     -31.57430000     -72.68370000
C      -44.29110000     -30.52370000     -73.52150000
S      -47.98300000     -32.13370000     -74.53980000
S      -45.43370000     -30.22950000     -74.75590000
H      -43.43860000     -29.96710000     -73.37860000
