40
Properties=species:S:1:pos:R:3 #=T CELL(abcABC):=T 1.889726e+02=T 90.00000=T Traj:=T positionsangstrom=T Step:=T 0=T Bead:=T pbc="F F F"
C      -41.77700000     -35.11360000     -70.57450000
C      -41.93170000     -33.72000000     -70.73920000
C      -42.14750000     -33.38890000     -72.09180000
C      -42.28130000     -34.29240000     -73.17220000
C      -42.02400000     -35.66930000     -72.98830000
C      -41.76520000     -36.03200000     -71.65970000
H      -41.73090000     -35.44590000     -69.58020000
H      -42.28720000     -32.29680000     -72.24810000
H      -42.17290000     -36.37350000     -73.79410000
H      -41.58340000     -37.10110000     -71.41630000
C      -42.62340000     -33.74330000     -74.51910000
H      -41.87270000     -34.14330000     -75.21170000
H      -42.46730000     -32.72190000     -74.41280000
C      -41.96980000     -32.70720000     -69.62620000
H      -41.46190000     -33.14880000     -68.79480000
H      -41.32050000     -31.79490000     -69.90280000
S      -44.33800000     -34.24960000     -74.87880000
S      -43.60200000     -32.06990000     -69.19450000
C      -45.42490000     -32.95160000     -74.11260000
H      -44.96900000     -32.00710000     -74.47450000
H      -46.37090000     -32.97410000     -74.61900000
C      -44.29280000     -33.68690000     -68.64300000
H      -44.70200000     -33.59270000     -67.59640000
H      -43.43410000     -34.37190000     -68.64150000
C      -45.44180000     -34.28620000     -69.53760000
H      -45.05400000     -34.38650000     -70.55200000
H      -45.47320000     -35.30310000     -69.14960000
C      -45.72710000     -33.22930000     -72.62620000
H      -44.96450000     -32.77610000     -72.03030000
H      -45.66200000     -34.34750000     -72.43970000
C      -46.99940000     -32.72030000     -72.06350000
C      -48.02620000     -32.10010000     -72.74940000
C      -47.38490000     -32.89360000     -70.67590000
H      -48.10650000     -32.00870000     -73.80520000
C      -48.70430000     -32.45140000     -70.39640000
C      -46.81520000     -33.68720000     -69.57520000
C      -47.72060000     -33.84050000     -68.56760000
S      -49.42800000     -31.67700000     -71.77230000
S      -49.30090000     -33.15140000     -68.90570000
H      -47.43630000     -34.49900000     -67.69150000
