40
Properties=species:S:1:pos:R:3 #=T CELL(abcABC):=T 1.889726e+02=T 90.00000=T Traj:=T positionsangstrom=T Step:=T 0=T Bead:=T pbc="F F F"
C      -44.76090000     -34.11160000     -67.21070000
C      -43.80220000     -34.19970000     -68.27820000
C      -43.81600000     -35.34400000     -69.08010000
C      -44.82200000     -36.29090000     -69.01800000
C      -45.87650000     -36.12380000     -68.16600000
C      -45.77830000     -35.09890000     -67.18120000
H      -44.81540000     -33.31610000     -66.57420000
H      -42.88080000     -35.32240000     -69.65460000
H      -46.72270000     -36.85450000     -68.17230000
H      -46.56820000     -35.12220000     -66.50590000
C      -44.76070000     -37.32530000     -70.12890000
H      -44.77000000     -38.35520000     -69.71940000
H      -43.82550000     -37.23550000     -70.67660000
C      -42.76940000     -33.06390000     -68.53240000
H      -41.91800000     -32.90410000     -67.85030000
H      -42.29600000     -33.13050000     -69.56620000
S      -46.06470000     -37.08900000     -71.42800000
S      -43.67040000     -31.44000000     -68.70670000
C      -45.69680000     -35.49030000     -72.22470000
H      -44.57360000     -35.37220000     -72.10840000
H      -45.87950000     -35.79710000     -73.30230000
C      -44.69420000     -31.53920000     -70.20430000
H      -45.20880000     -30.60570000     -70.41080000
H      -45.45480000     -32.29310000     -70.01150000
C      -43.84360000     -32.12080000     -71.39460000
H      -42.83170000     -31.77740000     -71.34770000
H      -43.74300000     -33.20220000     -71.27900000
C      -46.51940000     -34.28300000     -71.70520000
H      -46.01320000     -33.97490000     -70.81060000
H      -47.49740000     -34.67010000     -71.31380000
C      -46.77000000     -33.16870000     -72.71940000
C      -47.88190000     -33.26490000     -73.54380000
C      -45.84510000     -32.10950000     -73.03510000
H      -48.70170000     -33.86610000     -73.50790000
C      -46.19940000     -31.39900000     -74.17840000
C      -44.52240000     -31.72440000     -72.67850000
C      -44.05750000     -30.67350000     -73.47820000
S      -47.78470000     -31.98980000     -74.84310000
S      -45.14800000     -30.17710000     -74.73750000
H      -43.13160000     -30.13140000     -73.38690000
