40
Properties=species:S:1:pos:R:3 #=T CELL(abcABC):=T 1.889726e+02=T 90.00000=T Traj:=T positionsangstrom=T Step:=T 0=T Bead:=T pbc="F F F"
C      -44.67720000     -34.20230000     -66.83280000
C      -43.95310000     -33.86960000     -67.98250000
C      -43.86530000     -34.73150000     -69.10500000
C      -44.55780000     -35.91890000     -69.05630000
C      -45.28550000     -36.22610000     -67.88160000
C      -45.30830000     -35.39050000     -66.76800000
H      -44.66510000     -33.40930000     -66.01040000
H      -43.32360000     -34.41720000     -69.96120000
H      -45.74100000     -37.21630000     -67.73370000
H      -45.79860000     -35.69080000     -65.79220000
C      -44.52250000     -36.89280000     -70.29250000
H      -44.06650000     -37.88530000     -70.09940000
H      -43.85990000     -36.44060000     -71.05860000
C      -43.09240000     -32.65140000     -67.90040000
H      -42.87850000     -32.29030000     -66.87800000
H      -42.04330000     -32.83240000     -68.28090000
S      -46.03350000     -37.08120000     -71.25380000
S      -43.76890000     -31.21340000     -68.73190000
C      -46.14100000     -35.58440000     -72.41570000
H      -45.13520000     -35.46520000     -72.77810000
H      -46.67950000     -36.06220000     -73.20760000
C      -44.84520000     -31.80620000     -70.10730000
H      -45.33220000     -30.87680000     -70.40490000
H      -45.64410000     -32.52790000     -69.77580000
C      -44.12770000     -32.33080000     -71.36140000
H      -43.12240000     -32.11560000     -71.34500000
H      -44.16700000     -33.38550000     -71.30080000
C      -46.83440000     -34.31110000     -71.86700000
H      -46.21500000     -34.08730000     -71.02800000
H      -47.74660000     -34.56830000     -71.40530000
C      -46.91870000     -33.29600000     -72.96360000
C      -47.94660000     -33.28510000     -73.88130000
C      -45.89760000     -32.29600000     -73.26750000
H      -48.94340000     -33.79890000     -73.69730000
C      -46.21290000     -31.56810000     -74.44060000
C      -44.66420000     -31.88930000     -72.64180000
C      -44.12040000     -30.83110000     -73.34550000
S      -47.59590000     -32.12700000     -75.24070000
S      -45.00660000     -30.38710000     -74.80520000
H      -43.22730000     -30.25390000     -73.08120000
