40
Properties=species:S:1:pos:R:3 #=T CELL(abcABC):=T 1.889726e+02=T 90.00000=T Traj:=T positionsangstrom=T Step:=T 0=T Bead:=T pbc="F F F"
C      -45.86910000     -31.47020000     -72.62700000
C      -44.54930000     -31.28550000     -72.32730000
C      -44.17100000     -31.19850000     -70.97590000
C      -45.14070000     -31.03960000     -69.95410000
C      -46.53540000     -31.06770000     -70.31220000
C      -46.84080000     -31.45550000     -71.61040000
H      -46.04340000     -31.69000000     -73.72800000
H      -43.16040000     -31.10340000     -70.70110000
H      -47.34670000     -31.04620000     -69.57280000
H      -47.84020000     -31.71170000     -71.97560000
C      -44.73970000     -30.94410000     -68.57110000
H      -45.13040000     -30.00850000     -68.04790000
H      -43.64790000     -30.91040000     -68.45720000
C      -43.50250000     -31.26320000     -73.42320000
H      -43.83470000     -30.51330000     -74.17350000
H      -42.54280000     -30.99820000     -73.06510000
S      -45.44270000     -32.38260000     -67.51510000
S      -43.15490000     -32.74440000     -74.55580000
C      -44.33650000     -33.86390000     -67.80540000
H      -43.29400000     -33.56650000     -67.63620000
H      -44.73940000     -34.57370000     -67.08060000
C      -42.45430000     -34.15180000     -73.52680000
H      -41.42830000     -34.12850000     -73.28440000
H      -42.53590000     -34.98940000     -74.14790000
C      -43.18900000     -34.42920000     -72.20640000
H      -42.57540000     -35.19040000     -71.62060000
H      -43.13270000     -33.52200000     -71.51900000
C      -44.32760000     -34.50120000     -69.17500000
H      -43.98640000     -35.49630000     -68.96140000
H      -43.46060000     -33.98640000     -69.73300000
C      -45.67620000     -34.60240000     -69.93190000
C      -46.94090000     -34.54340000     -69.43850000
C      -45.60320000     -34.96300000     -71.34010000
H      -47.25490000     -34.26420000     -68.38080000
C      -46.88030000     -35.20340000     -71.82850000
C      -44.62110000     -34.90410000     -72.37840000
C      -45.13070000     -35.13470000     -73.66800000
S      -48.15140000     -34.96330000     -70.66150000
S      -46.95650000     -35.50220000     -73.52760000
H      -44.60140000     -35.22280000     -74.62720000
