40
Properties=species:S:1:pos:R:3 #=T CELL(abcABC):=T 1.889726e+02=T 90.00000=T Traj:=T positionsangstrom=T Step:=T 0=T Bead:=T pbc="F F F"
C      -43.39490000     -36.31520000     -72.22700000
C      -42.70380000     -35.07450000     -71.95580000
C      -42.72330000     -34.07940000     -72.93500000
C      -43.47580000     -34.30810000     -74.10450000
C      -44.07240000     -35.52520000     -74.37420000
C      -44.09090000     -36.53670000     -73.39340000
H      -43.65140000     -36.98130000     -71.43880000
H      -42.42990000     -33.01870000     -72.73960000
H      -44.69570000     -35.60040000     -75.25210000
H      -44.63990000     -37.40770000     -73.39910000
C      -43.63000000     -33.24620000     -75.15720000
H      -43.41550000     -33.68940000     -76.16340000
H      -42.98920000     -32.37470000     -74.94840000
C      -41.98330000     -34.98280000     -70.61680000
H      -42.67990000     -35.42690000     -69.87200000
H      -40.95750000     -35.47970000     -70.59500000
S      -45.37800000     -32.72150000     -75.25210000
S      -41.80360000     -33.26190000     -70.08930000
C      -45.94770000     -31.97290000     -73.61160000
H      -45.25930000     -31.10050000     -73.30360000
H      -46.89780000     -31.52180000     -73.83270000
C      -43.52890000     -32.81460000     -69.62260000
H      -43.94840000     -32.12720000     -70.36550000
H      -43.45070000     -32.20090000     -68.70260000
C      -44.50980000     -33.97070000     -69.32360000
H      -44.46530000     -34.64340000     -70.18600000
H      -44.10090000     -34.48440000     -68.40050000
C      -46.05340000     -33.02050000     -72.47560000
H      -44.97290000     -33.03450000     -72.06300000
H      -46.28460000     -34.09420000     -72.77230000
C      -47.02660000     -32.58320000     -71.31540000
C      -48.23020000     -31.88670000     -71.59570000
C      -46.84690000     -32.88050000     -69.87710000
H      -48.57140000     -31.52830000     -72.52050000
C      -47.95510000     -32.29930000     -69.19740000
C      -45.87760000     -33.49970000     -68.98150000
C      -46.46820000     -33.59310000     -67.68230000
S      -49.21790000     -31.62970000     -70.15830000
S      -47.96770000     -32.78820000     -67.48480000
H      -45.80490000     -33.60390000     -66.82230000
