40
Properties=species:S:1:pos:R:3 #=T CELL(abcABC):=T 1.889726e+02=T 90.00000=T Traj:=T positionsangstrom=T Step:=T 0=T Bead:=T pbc="F F F"
C      -45.52100000     -31.32240000     -72.60160000
C      -44.16750000     -31.18870000     -72.15890000
C      -43.87770000     -31.08150000     -70.76270000
C      -44.95510000     -31.12560000     -69.87750000
C      -46.24680000     -31.31450000     -70.33590000
C      -46.54660000     -31.28280000     -71.69760000
H      -45.63700000     -31.18650000     -73.65580000
H      -42.90540000     -30.96690000     -70.23340000
H      -47.11570000     -31.09170000     -69.70210000
H      -47.52680000     -31.36480000     -72.11670000
C      -44.95630000     -30.89090000     -68.42660000
H      -45.65890000     -30.08640000     -68.12360000
H      -44.01970000     -30.47150000     -67.99910000
C      -43.06610000     -31.21980000     -73.16050000
H      -43.07440000     -30.29640000     -73.71060000
H      -42.11900000     -31.46340000     -72.65740000
S      -45.51120000     -32.31180000     -67.39970000
S      -43.47520000     -32.51450000     -74.55140000
C      -44.42130000     -33.78400000     -67.72540000
H      -43.43700000     -33.49980000     -67.39480000
H      -44.69200000     -34.70250000     -67.17160000
C      -42.68510000     -34.08950000     -73.98200000
H      -41.63190000     -33.86270000     -73.80420000
H      -42.85030000     -34.82870000     -74.82190000
C      -43.27960000     -34.65770000     -72.64260000
H      -42.75790000     -35.63830000     -72.40400000
H      -43.16290000     -33.90120000     -71.93050000
C      -44.32460000     -34.16140000     -69.23850000
H      -43.53580000     -34.93600000     -69.44190000
H      -43.95740000     -33.31580000     -69.76220000
C      -45.60080000     -34.49690000     -70.04030000
C      -46.79150000     -34.56530000     -69.43450000
C      -45.67640000     -34.88210000     -71.46630000
H      -47.12970000     -34.50050000     -68.44860000
C      -46.93630000     -35.30770000     -71.84500000
C      -44.72040000     -35.00020000     -72.61020000
C      -45.39750000     -35.36570000     -73.74430000
S      -48.07770000     -35.26430000     -70.52800000
S      -47.15480000     -35.64120000     -73.49680000
H      -44.95100000     -35.77240000     -74.62710000
