40
Properties=species:S:1:pos:R:3 #=T CELL(abcABC):=T 1.889726e+02=T 90.00000=T Traj:=T positionsangstrom=T Step:=T 0=T Bead:=T pbc="F F F"
C      -45.63200000     -31.33570000     -72.68930000
C      -44.33740000     -31.13690000     -72.20880000
C      -44.07040000     -31.01670000     -70.86100000
C      -45.17570000     -31.18700000     -69.95060000
C      -46.49520000     -31.29390000     -70.43730000
C      -46.74110000     -31.34740000     -71.77760000
H      -45.85250000     -31.70130000     -73.71860000
H      -43.05370000     -30.93110000     -70.57390000
H      -47.19240000     -31.52250000     -69.70050000
H      -47.75600000     -31.41920000     -72.12460000
C      -44.72070000     -31.14350000     -68.46320000
H      -44.96660000     -30.14170000     -68.22690000
H      -43.65310000     -31.31680000     -68.39770000
C      -43.17190000     -31.32190000     -73.17930000
H      -42.85560000     -30.41260000     -73.70810000
H      -42.23690000     -31.45170000     -72.60470000
S      -45.53890000     -32.36690000     -67.45630000
S      -43.36880000     -32.62450000     -74.49910000
C      -44.49060000     -33.81970000     -67.84490000
H      -43.51740000     -33.77840000     -67.25100000
H      -44.97080000     -34.60410000     -67.34140000
C      -42.56010000     -34.01200000     -73.62290000
H      -41.55510000     -33.66420000     -73.30640000
H      -42.44260000     -34.82500000     -74.42090000
C      -43.24930000     -34.60670000     -72.40430000
H      -42.67580000     -35.45880000     -72.07700000
H      -43.07360000     -33.97660000     -71.48510000
C      -44.29080000     -34.07370000     -69.29080000
H      -43.50400000     -34.86260000     -69.44320000
H      -43.88640000     -33.22580000     -69.75890000
C      -45.54000000     -34.56090000     -70.02700000
C      -46.71700000     -34.72060000     -69.44370000
C      -45.66030000     -34.69990000     -71.51540000
H      -46.89800000     -34.70980000     -68.38450000
C      -46.94970000     -35.13990000     -71.88520000
C      -44.67730000     -34.94390000     -72.52390000
C      -45.34740000     -35.31640000     -73.67940000
S      -48.07070000     -35.04750000     -70.50640000
S      -47.03030000     -35.66270000     -73.52020000
H      -44.93800000     -35.55990000     -74.64150000
