40
Properties=species:S:1:pos:R:3 #=T CELL(abcABC):=T 1.889726e+02=T 90.00000=T Traj:=T positionsangstrom=T Step:=T 0=T Bead:=T pbc="F F F"
C      -45.40200000     -36.42980000     -69.00520000
C      -46.36100000     -35.42650000     -68.65550000
C      -45.86590000     -34.18330000     -68.25930000
C      -44.49710000     -33.88730000     -68.10870000
C      -43.59720000     -34.88880000     -68.41550000
C      -44.07470000     -36.15890000     -68.76470000
H      -45.75780000     -37.38640000     -69.42080000
H      -46.62820000     -33.50690000     -67.95090000
H      -42.50210000     -34.70790000     -68.34420000
H      -43.30300000     -36.92070000     -68.94560000
C      -43.90050000     -32.57580000     -67.63790000
H      -42.89260000     -32.69430000     -67.36300000
H      -44.36580000     -32.22920000     -66.72320000
C      -47.85250000     -35.64020000     -68.63690000
H      -47.97770000     -36.69060000     -68.73880000
H      -48.32160000     -35.21640000     -67.75710000
S      -43.82690000     -31.06820000     -68.68640000
S      -48.73730000     -34.68630000     -70.06740000
C      -43.79390000     -31.51620000     -70.47910000
H      -42.72210000     -31.09250000     -70.92150000
H      -43.72420000     -32.62100000     -70.49830000
C      -47.71170000     -34.93150000     -71.49560000
H      -48.31100000     -34.94070000     -72.39980000
H      -47.24480000     -35.97660000     -71.45130000
C      -46.68370000     -33.84420000     -71.72890000
H      -47.30180000     -32.90340000     -71.64650000
H      -46.04550000     -33.92260000     -70.91270000
C      -44.90050000     -30.94340000     -71.30850000
H      -44.81070000     -29.86010000     -71.30560000
H      -45.89500000     -31.24910000     -71.01100000
C      -44.65550000     -31.37770000     -72.71680000
C      -43.92780000     -30.58470000     -73.55540000
C      -45.14600000     -32.61930000     -73.41380000
H      -43.28490000     -29.67320000     -73.25970000
C      -44.65120000     -32.71620000     -74.70290000
C      -46.02820000     -33.80550000     -73.04960000
C      -46.08130000     -34.72780000     -74.03720000
S      -43.65710000     -31.29800000     -75.13850000
S      -45.08710000     -34.25550000     -75.47930000
H      -46.64560000     -35.66450000     -74.01380000
