40
Properties=species:S:1:pos:R:3 #=T CELL(abcABC):=T 1.889726e+02=T 90.00000=T Traj:=T positionsangstrom=T Step:=T 0=T Bead:=T pbc="F F F"
C      -45.43580000     -31.32430000     -72.73400000
C      -44.10690000     -31.16360000     -72.33170000
C      -43.89450000     -31.05450000     -70.94830000
C      -44.98380000     -31.16620000     -70.01580000
C      -46.31170000     -31.11720000     -70.49980000
C      -46.49440000     -31.32610000     -71.83330000
H      -45.71680000     -31.35050000     -73.81500000
H      -42.91080000     -30.97720000     -70.43700000
H      -47.15480000     -31.09050000     -69.80430000
H      -47.51350000     -31.26860000     -72.19690000
C      -44.76760000     -31.14840000     -68.52400000
H      -45.32370000     -30.34970000     -68.05380000
H      -43.70210000     -31.09430000     -68.25690000
C      -43.02110000     -31.16000000     -73.38820000
H      -43.31810000     -30.41080000     -74.10690000
H      -41.99160000     -30.91180000     -73.19230000
S      -45.64410000     -32.55430000     -67.71590000
S      -43.06790000     -32.82170000     -74.42640000
C      -44.52760000     -34.00750000     -67.71040000
H      -43.53670000     -33.74630000     -67.19390000
H      -44.93550000     -34.75140000     -66.95670000
C      -42.51830000     -34.15880000     -73.44280000
H      -41.48260000     -34.05430000     -73.17730000
H      -42.65300000     -34.90120000     -74.18270000
C      -43.32670000     -34.51550000     -72.19520000
H      -42.84320000     -35.51250000     -71.84470000
H      -43.10990000     -33.78240000     -71.39030000
C      -44.46980000     -34.63130000     -69.09820000
H      -43.92340000     -35.58920000     -69.16690000
H      -43.82030000     -33.89430000     -69.73080000
C      -45.75480000     -34.78890000     -69.85230000
C      -46.98740000     -34.88500000     -69.33680000
C      -45.77030000     -34.75470000     -71.34480000
H      -47.31270000     -34.97120000     -68.29310000
C      -47.07530000     -34.96300000     -71.83320000
C      -44.76100000     -34.87420000     -72.32840000
C      -45.32000000     -35.11610000     -73.59050000
S      -48.27990000     -35.05130000     -70.58960000
S      -47.09800000     -35.09180000     -73.57510000
H      -44.77100000     -35.01050000     -74.52330000
