40
Properties=species:S:1:pos:R:3 #=T CELL(abcABC):=T 1.889726e+02=T 90.00000=T Traj:=T positionsangstrom=T Step:=T 0=T Bead:=T pbc="F F F"
C      -45.57050000     -31.36650000     -72.59880000
C      -44.19500000     -31.30620000     -72.16300000
C      -44.02840000     -31.08540000     -70.78560000
C      -45.05790000     -30.98460000     -69.87500000
C      -46.35900000     -30.86340000     -70.35900000
C      -46.60980000     -31.19110000     -71.69580000
H      -45.87880000     -31.64660000     -73.63210000
H      -43.01040000     -31.07450000     -70.37620000
H      -47.09930000     -30.79590000     -69.52080000
H      -47.63170000     -31.30290000     -71.96630000
C      -44.55640000     -30.95950000     -68.46200000
H      -44.73870000     -29.99620000     -67.97010000
H      -43.51230000     -31.19250000     -68.31390000
C      -42.99600000     -31.44980000     -73.03440000
H      -42.53840000     -30.45000000     -73.29370000
H      -42.22870000     -31.99270000     -72.44710000
S      -45.38290000     -32.24400000     -67.42040000
S      -43.32420000     -32.36580000     -74.56220000
C      -44.38570000     -33.86470000     -67.84530000
H      -43.37030000     -33.66870000     -67.47880000
H      -44.98530000     -34.64880000     -67.29960000
C      -42.74910000     -34.18330000     -74.00600000
H      -41.70740000     -34.35420000     -74.02100000
H      -43.07460000     -34.85790000     -74.77930000
C      -43.45020000     -34.49450000     -72.68330000
H      -42.95060000     -35.38590000     -72.22650000
H      -43.34420000     -33.64740000     -71.97530000
C      -44.30090000     -34.22330000     -69.36900000
H      -43.44200000     -34.84260000     -69.37400000
H      -44.07410000     -33.31950000     -70.00760000
C      -45.57940000     -34.76710000     -70.04670000
C      -46.75620000     -34.84620000     -69.37220000
C      -45.67490000     -35.01010000     -71.47510000
H      -46.97620000     -34.56070000     -68.35140000
C      -46.99570000     -35.36020000     -71.79540000
C      -44.87440000     -34.84360000     -72.69240000
C      -45.58500000     -35.17000000     -73.84400000
S      -48.10140000     -35.27210000     -70.38220000
S      -47.21730000     -35.72650000     -73.48220000
H      -45.14590000     -35.29530000     -74.86650000
