40
Properties=species:S:1:pos:R:3 #=T CELL(abcABC):=T 1.889726e+02=T 90.00000=T Traj:=T positionsangstrom=T Step:=T 0=T Bead:=T pbc="F F F"
C      -45.22580000     -35.95470000     -69.27480000
C      -46.16260000     -34.88880000     -69.01580000
C      -45.73260000     -33.67390000     -68.48830000
C      -44.37370000     -33.42430000     -68.21990000
C      -43.50800000     -34.52270000     -68.39720000
C      -43.92240000     -35.76320000     -68.95510000
H      -45.46390000     -36.87250000     -69.64710000
H      -46.37980000     -32.79100000     -68.44970000
H      -42.44420000     -34.37790000     -68.25140000
H      -43.17350000     -36.54920000     -69.22890000
C      -43.87530000     -32.09760000     -67.79880000
H      -42.79050000     -32.06750000     -67.67610000
H      -44.36710000     -31.77090000     -66.91430000
C      -47.66790000     -35.15270000     -69.12180000
H      -47.87650000     -36.05830000     -69.84210000
H      -48.09260000     -35.31250000     -68.11520000
S      -44.42690000     -30.80730000     -68.95750000
S      -48.75050000     -33.69550000     -69.72630000
C      -43.96090000     -31.67660000     -70.57650000
H      -42.90320000     -31.78910000     -70.50580000
H      -44.48050000     -32.66780000     -70.53290000
C      -48.40320000     -33.36090000     -71.50590000
H      -49.06490000     -32.56300000     -71.86270000
H      -48.77750000     -34.25930000     -72.06590000
C      -46.94500000     -33.00600000     -71.58590000
H      -46.85030000     -31.94350000     -71.51660000
H      -46.47090000     -33.41730000     -70.70430000
C      -44.35660000     -30.96830000     -71.79870000
H      -43.76080000     -30.08570000     -71.89520000
H      -45.36520000     -30.52460000     -71.84240000
C      -44.15790000     -31.95150000     -72.95360000
C      -43.00640000     -31.89930000     -73.72390000
C      -45.05670000     -33.02860000     -73.38570000
H      -42.16420000     -31.26590000     -73.48790000
C      -44.53420000     -33.75910000     -74.42160000
C      -46.26400000     -33.51550000     -72.84990000
C      -46.73120000     -34.68470000     -73.55670000
S      -42.97700000     -33.15060000     -74.98040000
S      -45.61640000     -34.98550000     -74.98460000
H      -47.44890000     -35.50190000     -73.35760000
