40
Properties=species:S:1:pos:R:3 #=T CELL(abcABC):=T 1.889726e+02=T 90.00000=T Traj:=T positionsangstrom=T Step:=T 0=T Bead:=T pbc="F F F"
C      -45.51070000     -35.91090000     -69.30240000
C      -46.35290000     -34.82890000     -68.93590000
C      -45.84990000     -33.65380000     -68.41100000
C      -44.46130000     -33.45850000     -68.23050000
C      -43.60960000     -34.54070000     -68.47920000
C      -44.16040000     -35.67500000     -69.07870000
H      -45.74970000     -36.72690000     -69.84230000
H      -46.58590000     -32.86860000     -68.30810000
H      -42.51280000     -34.51550000     -68.35420000
H      -43.53900000     -36.50960000     -69.37060000
C      -43.96220000     -32.13490000     -67.68590000
H      -42.92970000     -32.25390000     -67.18530000
H      -44.69230000     -31.72500000     -66.93740000
C      -47.86750000     -34.94010000     -68.99330000
H      -48.10540000     -35.84850000     -69.43740000
H      -48.28570000     -34.91810000     -68.03320000
S      -44.00050000     -30.85900000     -69.07410000
S      -48.79660000     -33.50710000     -69.84800000
C      -43.78680000     -31.80720000     -70.62190000
H      -42.76170000     -32.03100000     -70.87350000
H      -44.28230000     -32.77380000     -70.60130000
C      -48.47370000     -33.55050000     -71.61480000
H      -49.41540000     -33.26840000     -72.08250000
H      -48.32140000     -34.49960000     -72.03100000
C      -47.34590000     -32.65960000     -72.02770000
H      -47.79380000     -31.85580000     -72.64770000
H      -46.64490000     -32.19690000     -71.18760000
C      -44.41120000     -31.00800000     -71.83140000
H      -43.77050000     -30.12550000     -71.96410000
H      -45.45710000     -30.67590000     -71.56510000
C      -44.19090000     -31.91410000     -72.95620000
C      -43.01080000     -31.83600000     -73.68580000
C      -45.03430000     -33.04210000     -73.26400000
H      -42.35110000     -31.04570000     -73.49710000
C      -44.39930000     -33.91230000     -74.28950000
C      -46.39310000     -33.43790000     -72.95770000
C      -46.74250000     -34.61590000     -73.62280000
S      -42.81520000     -33.22120000     -74.76300000
S      -45.43560000     -35.22740000     -74.77620000
H      -47.67350000     -35.17810000     -73.67110000
