40
Properties=species:S:1:pos:R:3 #=T CELL(abcABC):=T 1.889726e+02=T 90.00000=T Traj:=T positionsangstrom=T Step:=T 0=T Bead:=T pbc="F F F"
C      -45.11600000     -32.59700000     -67.15940000
C      -46.11070000     -33.38380000     -67.77960000
C      -45.72110000     -34.62690000     -68.36350000
C      -44.34450000     -35.08050000     -68.30760000
C      -43.36380000     -34.25470000     -67.82450000
C      -43.78260000     -33.01820000     -67.18520000
H      -45.24900000     -31.68760000     -66.67590000
H      -46.51080000     -35.17140000     -68.87020000
H      -42.35630000     -34.51350000     -67.84510000
H      -43.06460000     -32.42230000     -66.69970000
C      -43.98980000     -36.44410000     -68.84170000
H      -45.01060000     -36.87770000     -69.08570000
H      -43.31410000     -36.97820000     -68.13260000
C      -47.47770000     -32.80660000     -68.07890000
H      -48.10590000     -33.45490000     -68.72880000
H      -48.15490000     -32.67300000     -67.26120000
S      -42.94770000     -36.29750000     -70.43340000
S      -47.29430000     -31.09070000     -68.82640000
C      -43.68260000     -34.99840000     -71.36840000
H      -43.65960000     -33.99010000     -70.88430000
H      -43.02360000     -34.91180000     -72.32130000
C      -47.37400000     -31.40200000     -70.69570000
H      -48.03680000     -30.59130000     -71.06850000
H      -47.97610000     -32.30360000     -70.77570000
C      -45.97310000     -31.63680000     -71.29750000
H      -45.17490000     -30.95580000     -70.94270000
H      -45.73310000     -32.54230000     -70.77540000
C      -45.11330000     -35.18210000     -71.88440000
H      -45.84070000     -34.87240000     -71.13730000
H      -45.25020000     -36.25170000     -72.11370000
C      -45.33780000     -34.45110000     -73.25000000
C      -44.98520000     -35.14130000     -74.41190000
C      -45.59790000     -33.02630000     -73.54380000
H      -44.72270000     -36.16480000     -74.54110000
C      -45.48980000     -32.69930000     -74.87670000
C      -45.91630000     -31.76020000     -72.82380000
C      -46.18480000     -30.64710000     -73.62850000
S      -45.03310000     -34.05710000     -75.81280000
S      -45.87800000     -31.06370000     -75.33410000
H      -46.36130000     -29.63980000     -73.46370000
