40
Properties=species:S:1:pos:R:3 #=T CELL(abcABC):=T 1.889726e+02=T 90.00000=T Traj:=T positionsangstrom=T Step:=T 0=T Bead:=T pbc="F F F"
C      -45.72260000     -31.07970000     -72.61270000
C      -44.34150000     -31.17140000     -72.49110000
C      -43.71240000     -31.28680000     -71.22990000
C      -44.54160000     -31.31800000     -70.06510000
C      -45.95910000     -31.14010000     -70.17870000
C      -46.54700000     -31.13370000     -71.44920000
H      -46.12110000     -31.05470000     -73.63650000
H      -42.60720000     -31.40750000     -71.01950000
H      -46.60070000     -31.20540000     -69.34670000
H      -47.60070000     -31.11320000     -71.66100000
C      -43.94240000     -31.47260000     -68.66670000
H      -43.86400000     -30.50200000     -68.18160000
H      -42.91130000     -31.91640000     -68.65660000
C      -43.45660000     -31.08680000     -73.72140000
H      -43.50890000     -30.12790000     -74.32640000
H      -42.37240000     -31.13040000     -73.61360000
S      -45.02060000     -32.61960000     -67.64640000
S      -43.83820000     -32.48450000     -74.85010000
C      -44.19270000     -34.27090000     -67.82350000
H      -43.22240000     -34.29640000     -67.34770000
H      -44.69140000     -35.03130000     -67.13560000
C      -43.04730000     -33.93390000     -73.97200000
H      -42.05620000     -33.67750000     -73.97590000
H      -43.11140000     -34.74330000     -74.67150000
C      -43.53690000     -34.40240000     -72.61030000
H      -42.93200000     -35.27130000     -72.29180000
H      -43.29090000     -33.64440000     -71.88410000
C      -44.05660000     -34.78390000     -69.27910000
H      -43.64780000     -35.82990000     -69.30350000
H      -43.28240000     -34.22480000     -69.85140000
C      -45.40950000     -34.82810000     -69.89350000
C      -46.55940000     -35.05040000     -69.14140000
C      -45.74940000     -34.97920000     -71.31930000
H      -46.66540000     -34.94750000     -68.02820000
C      -47.11760000     -35.18300000     -71.53820000
C      -45.00790000     -34.72000000     -72.55540000
C      -45.87100000     -34.60220000     -73.58610000
S      -48.03800000     -35.30310000     -70.05030000
S      -47.53580000     -34.97120000     -73.23740000
H      -45.63410000     -34.58690000     -74.60170000
