40
Properties=species:S:1:pos:R:3 #=T CELL(abcABC):=T 1.889726e+02=T 90.00000=T Traj:=T positionsangstrom=T Step:=T 0=T Bead:=T pbc="F F F"
C      -45.89160000     -31.12320000     -72.64840000
C      -44.47780000     -31.15100000     -72.69550000
C      -43.79050000     -31.29210000     -71.46340000
C      -44.46210000     -31.43910000     -70.24430000
C      -45.87070000     -31.51970000     -70.19740000
C      -46.54690000     -31.37500000     -71.44540000
H      -46.49170000     -31.07210000     -73.59280000
H      -42.78090000     -31.48450000     -71.53620000
H      -46.45300000     -31.61330000     -69.28850000
H      -47.65260000     -31.51580000     -71.56210000
C      -43.69830000     -31.46720000     -68.89770000
H      -43.81140000     -30.43450000     -68.55050000
H      -42.69240000     -31.64270000     -69.03730000
C      -43.70110000     -31.23430000     -73.99940000
H      -44.00720000     -30.37010000     -74.51850000
H      -42.56670000     -31.31930000     -73.90980000
S      -44.32650000     -32.65670000     -67.60570000
S      -44.06570000     -32.58740000     -75.11700000
C      -43.54420000     -34.22700000     -68.06850000
H      -42.44750000     -34.17160000     -67.99370000
H      -43.87820000     -34.89740000     -67.25620000
C      -43.40540000     -34.20270000     -74.34670000
H      -42.31630000     -34.10600000     -74.43290000
H      -43.67420000     -34.90690000     -75.07860000
C      -43.80670000     -34.52320000     -72.82510000
H      -43.33830000     -35.51760000     -72.62600000
H      -43.32100000     -33.73940000     -72.31690000
C      -43.88420000     -34.71230000     -69.47490000
H      -43.25220000     -35.61380000     -69.62660000
H      -43.51780000     -33.91760000     -70.23390000
C      -45.35500000     -34.89200000     -69.79150000
C      -46.36050000     -35.10190000     -68.88320000
C      -45.84430000     -34.73050000     -71.14880000
H      -46.27110000     -35.18930000     -67.80590000
C      -47.21540000     -34.81710000     -71.20680000
C      -45.24990000     -34.58470000     -72.50970000
C      -46.19740000     -34.56540000     -73.48750000
S      -47.97450000     -35.06660000     -69.64030000
S      -47.85910000     -34.83970000     -72.83390000
H      -45.90350000     -34.31670000     -74.54390000
