40
Properties=species:S:1:pos:R:3 #=T CELL(abcABC):=T 1.889726e+02=T 90.00000=T Traj:=T positionsangstrom=T Step:=T 0=T Bead:=T pbc="F F F"
C      -45.31720000     -33.03200000     -67.39160000
C      -44.10200000     -33.07780000     -68.02820000
C      -43.65570000     -34.24760000     -68.66510000
C      -44.45490000     -35.41060000     -68.58850000
C      -45.70520000     -35.40200000     -67.93190000
C      -46.08080000     -34.18140000     -67.36790000
H      -45.58930000     -32.15740000     -66.93940000
H      -42.65840000     -34.23300000     -69.06200000
H      -46.16340000     -36.36600000     -67.71490000
H      -47.13130000     -34.07180000     -67.06450000
C      -43.90540000     -36.68720000     -69.23280000
H      -43.94340000     -37.63990000     -68.66010000
H      -42.86370000     -36.70400000     -69.35940000
C      -43.26950000     -31.88390000     -68.08780000
H      -42.92250000     -31.59870000     -67.09110000
H      -42.40440000     -31.91470000     -68.72990000
S      -44.83510000     -37.08820000     -70.77850000
S      -44.28200000     -30.47860000     -68.82760000
C      -44.22880000     -36.01780000     -72.17640000
H      -43.13080000     -36.16380000     -72.21550000
H      -44.58240000     -36.56130000     -73.01920000
C      -45.31760000     -31.33190000     -70.34390000
H      -46.24250000     -30.72560000     -70.42580000
H      -45.73190000     -32.32970000     -70.07860000
C      -44.57640000     -31.30740000     -71.66960000
H      -43.92950000     -30.38530000     -71.67990000
H      -43.98740000     -32.18320000     -71.60230000
C      -44.61650000     -34.54640000     -72.00620000
H      -43.73890000     -33.90160000     -72.21510000
H      -44.88670000     -34.19620000     -70.93380000
C      -45.62160000     -34.08460000     -73.06230000
C      -46.50510000     -34.90390000     -73.69210000
C      -45.77930000     -32.71330000     -73.53440000
H      -46.76190000     -35.99300000     -73.52840000
C      -46.61840000     -32.51920000     -74.59890000
C      -45.44410000     -31.41020000     -72.95960000
C      -45.85010000     -30.33550000     -73.67440000
S      -47.30410000     -34.05710000     -75.05840000
S      -46.89380000     -30.89690000     -75.03440000
H      -45.87320000     -29.25720000     -73.37580000
