40
Properties=species:S:1:pos:R:3 #=T CELL(abcABC):=T 1.889726e+02=T 90.00000=T Traj:=T positionsangstrom=T Step:=T 0=T Bead:=T pbc="F F F"
C      -47.65610000     -36.08230000     -71.85630000
C      -47.31810000     -35.43890000     -73.07690000
C      -47.72320000     -34.12210000     -73.33010000
C      -48.43860000     -33.38950000     -72.34860000
C      -48.86410000     -34.04410000     -71.19870000
C      -48.38980000     -35.31420000     -70.89380000
H      -47.30280000     -37.08440000     -71.66410000
H      -47.53480000     -33.48040000     -74.18020000
H      -49.35030000     -33.53500000     -70.38170000
H      -48.51330000     -35.66950000     -69.90570000
C      -48.92580000     -31.94710000     -72.67360000
H      -49.45720000     -31.58730000     -71.79830000
H      -49.60740000     -31.93560000     -73.49940000
C      -46.54980000     -36.17950000     -74.04640000
H      -46.53940000     -37.21220000     -73.78340000
H      -46.90730000     -36.05250000     -75.03740000
S      -47.54830000     -30.77890000     -73.05750000
S      -44.78850000     -35.70490000     -74.00680000
C      -46.32780000     -30.78460000     -71.77370000
H      -45.48930000     -30.22040000     -72.31310000
H      -46.65980000     -30.28650000     -70.84060000
C      -44.35190000     -35.37760000     -72.17690000
H      -44.03260000     -36.31080000     -71.66780000
H      -45.27820000     -35.10250000     -71.75080000
C      -43.27680000     -34.34420000     -72.17900000
H      -42.27690000     -34.73050000     -72.58860000
H      -43.57850000     -33.48460000     -72.82650000
C      -45.80040000     -32.21610000     -71.26850000
H      -45.38570000     -32.68030000     -72.19970000
H      -46.54770000     -32.85980000     -70.94300000
C      -44.78390000     -32.11830000     -70.20550000
C      -44.94000000     -31.23550000     -69.17270000
C      -43.60270000     -32.90890000     -70.05710000
H      -45.69280000     -30.49730000     -69.03870000
C      -42.91010000     -32.64340000     -68.82140000
C      -42.85150000     -33.83870000     -70.87480000
C      -41.65950000     -34.19460000     -70.30180000
S      -43.69870000     -31.40420000     -67.91770000
S      -41.39420000     -33.43740000     -68.76790000
H      -40.87440000     -34.90140000     -70.71300000
