40
Properties=species:S:1:pos:R:3 #=T CELL(abcABC):=T 1.889726e+02=T 90.00000=T Traj:=T positionsangstrom=T Step:=T 0=T Bead:=T pbc="F F F"
C      -47.83090000     -34.91250000     -67.14480000
C      -47.40410000     -34.40870000     -68.40320000
C      -46.11830000     -33.78370000     -68.48370000
C      -45.25830000     -33.75130000     -67.38160000
C      -45.64180000     -34.24790000     -66.17260000
C      -46.93380000     -34.79090000     -66.07390000
H      -48.82700000     -35.27470000     -66.96360000
H      -45.70900000     -33.67070000     -69.44760000
H      -45.10220000     -34.20940000     -65.29000000
H      -47.26890000     -35.20560000     -65.19650000
C      -43.84230000     -33.26560000     -67.56760000
H      -43.09780000     -34.13410000     -67.78650000
H      -43.30740000     -32.80800000     -66.64610000
C      -48.27130000     -34.51380000     -69.64470000
H      -47.68780000     -35.00590000     -70.34950000
H      -49.14770000     -35.12060000     -69.48330000
S      -43.67150000     -32.01870000     -68.86100000
S      -48.78150000     -32.97660000     -70.48340000
C      -43.25560000     -32.97960000     -70.37800000
H      -42.25090000     -33.34820000     -70.16420000
H      -43.90790000     -33.84980000     -70.51640000
C      -47.91650000     -33.05660000     -72.11140000
H      -48.25920000     -32.35700000     -72.76130000
H      -48.12720000     -34.06730000     -72.56380000
C      -46.36640000     -32.81890000     -72.18390000
H      -46.19470000     -31.77600000     -71.96690000
H      -45.83450000     -33.29270000     -71.36610000
C      -43.26120000     -32.08450000     -71.56420000
H      -42.36930000     -31.42450000     -71.39780000
H      -44.07330000     -31.42720000     -71.59540000
C      -43.18830000     -32.85640000     -72.91280000
C      -42.04410000     -33.00240000     -73.61760000
C      -44.34030000     -33.11590000     -73.77770000
H      -41.00270000     -32.98200000     -73.16480000
C      -44.04320000     -33.42510000     -75.07640000
C      -45.73100000     -33.15180000     -73.51170000
C      -46.40020000     -33.60860000     -74.61320000
S      -42.33620000     -33.49490000     -75.27380000
S      -45.44180000     -33.85600000     -76.04860000
H      -47.47110000     -33.86250000     -74.75410000
