40
Properties=species:S:1:pos:R:3 #=T CELL(abcABC):=T 1.889726e+02=T 90.00000=T Traj:=T positionsangstrom=T Step:=T 0=T Bead:=T pbc="F F F"
C      -45.83480000     -31.38360000     -72.53330000
C      -44.46020000     -31.44260000     -72.75400000
C      -43.57900000     -31.40850000     -71.58870000
C      -44.12320000     -31.20160000     -70.29580000
C      -45.51760000     -31.29960000     -70.13940000
C      -46.33640000     -31.32370000     -71.22590000
H      -46.47570000     -31.36800000     -73.42240000
H      -42.49740000     -31.47580000     -71.75020000
H      -45.90690000     -31.42220000     -69.16620000
H      -47.43760000     -31.43910000     -71.03180000
C      -43.23060000     -31.03200000     -69.11300000
H      -43.45880000     -30.04220000     -68.68600000
H      -42.11300000     -31.12290000     -69.36080000
C      -43.80340000     -31.53140000     -74.11680000
H      -44.00330000     -30.68460000     -74.69150000
H      -42.75060000     -31.77220000     -73.91900000
S      -43.68990000     -32.24200000     -67.72800000
S      -44.59310000     -32.87550000     -75.18000000
C      -43.23660000     -33.94840000     -68.40970000
H      -42.11220000     -33.98510000     -68.38550000
H      -43.44900000     -34.69950000     -67.64890000
C      -44.04290000     -34.56270000     -74.56540000
H      -42.95910000     -34.69410000     -74.84890000
H      -44.49520000     -35.34580000     -75.10890000
C      -44.10020000     -34.69350000     -73.04670000
H      -43.44350000     -35.56690000     -72.71480000
H      -43.65220000     -33.76000000     -72.60780000
C      -43.88710000     -34.27200000     -69.72270000
H      -43.40070000     -35.21320000     -70.00440000
H      -43.60630000     -33.61030000     -70.56990000
C      -45.35620000     -34.50330000     -69.88800000
C      -46.27070000     -34.50140000     -68.84300000
C      -45.99870000     -34.73520000     -71.16020000
H      -46.01240000     -34.37580000     -67.75120000
C      -47.36140000     -34.93470000     -71.02060000
C      -45.49440000     -34.84050000     -72.49030000
C      -46.51430000     -35.30560000     -73.32120000
S      -47.90930000     -34.60780000     -69.37830000
S      -48.09300000     -35.43330000     -72.50550000
H      -46.54540000     -35.43850000     -74.39850000
