40
Properties=species:S:1:pos:R:3 #=T CELL(abcABC):=T 1.889726e+02=T 90.00000=T Traj:=T positionsangstrom=T Step:=T 0=T Bead:=T pbc="F F F"
C      -45.97440000     -31.14630000     -72.49860000
C      -44.60860000     -31.51420000     -72.84560000
C      -43.68370000     -31.46790000     -71.80560000
C      -44.05950000     -31.31800000     -70.44540000
C      -45.39770000     -31.19780000     -70.07500000
C      -46.34660000     -31.08200000     -71.11150000
H      -46.73990000     -30.90440000     -73.28090000
H      -42.65150000     -31.65750000     -72.09360000
H      -45.72100000     -31.20960000     -69.03020000
H      -47.33630000     -30.86620000     -70.83760000
C      -43.03840000     -31.29350000     -69.33090000
H      -42.78250000     -30.26420000     -68.99990000
H      -42.12560000     -31.74080000     -69.65640000
C      -44.22620000     -31.71160000     -74.22420000
H      -44.54690000     -30.79710000     -74.75010000
H      -43.14510000     -31.73370000     -74.27420000
S      -43.67200000     -32.18120000     -67.84830000
S      -44.87840000     -33.18140000     -75.13870000
C      -43.32790000     -33.97610000     -68.20460000
H      -42.29560000     -34.13010000     -67.94260000
H      -43.84820000     -34.48160000     -67.39590000
C      -43.96230000     -34.60090000     -74.49390000
H      -42.90570000     -34.55020000     -74.71300000
H      -44.42340000     -35.50310000     -75.05400000
C      -44.01060000     -34.89640000     -72.92930000
H      -43.64230000     -35.92930000     -72.69950000
H      -43.49020000     -34.14880000     -72.28370000
C      -43.69150000     -34.46190000     -69.60900000
H      -43.15240000     -35.43710000     -69.84060000
H      -43.30670000     -33.72010000     -70.29800000
C      -45.22140000     -34.60580000     -69.80750000
C      -46.12240000     -34.50270000     -68.76620000
C      -45.87170000     -34.69380000     -71.11790000
H      -45.99770000     -34.36040000     -67.71950000
C      -47.23580000     -34.75390000     -70.98860000
C      -45.48000000     -34.96330000     -72.49280000
C      -46.50470000     -35.18750000     -73.36130000
S      -47.78560000     -34.49700000     -69.32080000
S      -48.08620000     -35.10150000     -72.55500000
H      -46.43890000     -35.46730000     -74.45670000
