40
Properties=species:S:1:pos:R:3 #=T CELL(abcABC):=T 1.889726e+02=T 90.00000=T Traj:=T positionsangstrom=T Step:=T 0=T Bead:=T pbc="F F F"
C      -45.76610000     -31.48010000     -72.51810000
C      -44.34850000     -31.39430000     -72.68640000
C      -43.57340000     -31.15390000     -71.54270000
C      -44.16560000     -31.14520000     -70.18210000
C      -45.56130000     -31.22040000     -70.13120000
C      -46.31540000     -31.36700000     -71.24610000
H      -46.38110000     -31.60780000     -73.40560000
H      -42.40580000     -31.12980000     -71.60800000
H      -46.07280000     -31.14450000     -69.17930000
H      -47.41660000     -31.32730000     -71.20010000
C      -43.28230000     -31.12290000     -68.99170000
H      -43.29220000     -30.15380000     -68.56000000
H      -42.23040000     -31.20910000     -69.26430000
C      -43.66460000     -31.45090000     -74.05690000
H      -43.63290000     -30.41210000     -74.63190000
H      -42.61830000     -31.61220000     -73.91400000
S      -43.74730000     -32.37700000     -67.66470000
S      -44.40310000     -32.74700000     -75.13310000
C      -43.29750000     -33.96620000     -68.37160000
H      -42.26130000     -33.99880000     -68.48880000
H      -43.62100000     -34.74070000     -67.64900000
C      -43.74730000     -34.45640000     -74.49750000
H      -42.63740000     -34.32210000     -74.52050000
H      -44.22420000     -35.20200000     -75.18360000
C      -44.17240000     -34.80850000     -73.02340000
H      -43.71910000     -35.72720000     -72.69600000
H      -43.73030000     -34.09350000     -72.28580000
C      -43.86760000     -34.31790000     -69.75920000
H      -43.34500000     -35.28240000     -69.97630000
H      -43.34190000     -33.66620000     -70.41200000
C      -45.34230000     -34.42610000     -70.02340000
C      -46.22910000     -34.32240000     -68.96150000
C      -46.04070000     -34.82140000     -71.25580000
H      -45.97570000     -34.03770000     -67.97020000
C      -47.44580000     -34.95670000     -71.10110000
C      -45.65670000     -34.93800000     -72.60570000
C      -46.72250000     -35.33680000     -73.42580000
S      -47.87060000     -34.74670000     -69.43280000
S      -48.26860000     -35.40980000     -72.52790000
H      -46.66780000     -35.27660000     -74.45110000
