40
Properties=species:S:1:pos:R:3 #=T CELL(abcABC):=T 1.889726e+02=T 90.00000=T Traj:=T positionsangstrom=T Step:=T 0=T Bead:=T pbc="F F F"
C      -47.51670000     -35.89920000     -71.62830000
C      -47.29540000     -35.30060000     -72.86460000
C      -47.73570000     -33.97540000     -73.16490000
C      -48.57110000     -33.29220000     -72.23040000
C      -48.79760000     -33.94230000     -71.03310000
C      -48.30830000     -35.20190000     -70.67230000
H      -47.08540000     -36.79990000     -71.18370000
H      -47.45430000     -33.59830000     -74.19070000
H      -49.32850000     -33.36820000     -70.30000000
H      -48.39650000     -35.42090000     -69.67220000
C      -48.99940000     -31.89860000     -72.57920000
H      -49.75090000     -31.41050000     -71.92550000
H      -49.51820000     -31.95180000     -73.57290000
C      -46.62710000     -36.11390000     -73.99980000
H      -46.54720000     -37.12060000     -73.76550000
H      -47.16980000     -35.96810000     -74.95110000
S      -47.47510000     -30.82720000     -73.04150000
S      -44.89900000     -35.39230000     -74.45060000
C      -46.48470000     -30.74510000     -71.49950000
H      -45.75320000     -29.93270000     -71.63450000
H      -47.10000000     -30.52070000     -70.68120000
C      -44.00410000     -35.29360000     -72.79400000
H      -43.16490000     -35.99430000     -72.74900000
H      -44.74970000     -35.54980000     -72.08100000
C      -43.31640000     -33.91950000     -72.45660000
H      -42.42860000     -33.81660000     -73.22830000
H      -43.91480000     -33.10010000     -72.70410000
C      -45.63030000     -32.00240000     -71.29650000
H      -45.16970000     -32.22160000     -72.22980000
H      -46.28600000     -32.80720000     -71.09000000
C      -44.62220000     -31.86860000     -70.17610000
C      -44.75770000     -31.22790000     -68.97640000
C      -43.54520000     -32.84720000     -70.08220000
H      -45.59060000     -30.62930000     -68.64710000
C      -42.94240000     -32.88100000     -68.82150000
C      -42.95110000     -33.79970000     -71.00220000
C      -41.86250000     -34.42800000     -70.46720000
S      -43.59750000     -31.70200000     -67.70640000
S      -41.62150000     -34.05350000     -68.73080000
H      -41.21880000     -35.13780000     -70.90630000
