40
Properties=species:S:1:pos:R:3 #=T CELL(abcABC):=T 1.889726e+02=T 90.00000=T Traj:=T positionsangstrom=T Step:=T 0=T Bead:=T pbc="F F F"
C      -43.06040000     -34.93390000     -68.11820000
C      -44.43240000     -34.54750000     -68.20310000
C      -45.38680000     -35.30400000     -68.91750000
C      -44.85880000     -36.37570000     -69.71730000
C      -43.47660000     -36.71760000     -69.60440000
C      -42.58090000     -36.05110000     -68.77660000
H      -42.38010000     -34.36920000     -67.49860000
H      -46.38000000     -34.94490000     -69.05720000
H      -43.13320000     -37.59670000     -70.15950000
H      -41.53200000     -36.32950000     -68.65560000
C      -45.83440000     -36.93700000     -70.76970000
H      -46.80750000     -36.36790000     -70.80100000
H      -46.10410000     -38.00140000     -70.67350000
C      -44.75070000     -33.17000000     -67.48360000
H      -45.80290000     -33.04750000     -67.56460000
H      -44.46890000     -33.13660000     -66.44160000
S      -45.14760000     -37.00790000     -72.49520000
S      -43.94070000     -31.69120000     -68.17870000
C      -44.14550000     -35.41940000     -72.67220000
H      -43.15880000     -35.58230000     -72.13240000
H      -43.93850000     -35.32270000     -73.69470000
C      -44.62780000     -31.30400000     -69.83260000
H      -44.03680000     -31.71760000     -70.67590000
H      -44.57090000     -30.24170000     -69.82280000
C      -46.11200000     -31.60330000     -70.05610000
H      -46.42970000     -32.64310000     -69.97850000
H      -46.66850000     -31.08460000     -69.25660000
C      -44.93730000     -34.17270000     -72.10830000
H      -44.18230000     -33.56040000     -71.58540000
H      -45.67640000     -34.47810000     -71.37040000
C      -45.66440000     -33.30020000     -73.09000000
C      -45.64850000     -33.50120000     -74.45730000
C      -46.27330000     -31.99780000     -72.70710000
H      -45.17730000     -34.31330000     -75.02270000
C      -46.66310000     -31.29350000     -73.83140000
C      -46.44650000     -31.19260000     -71.47960000
C      -46.92500000     -29.95200000     -71.76870000
S      -46.45090000     -32.21260000     -75.34190000
S      -47.32480000     -29.68060000     -73.41110000
H      -47.18940000     -29.21970000     -71.01840000
