40
Properties=species:S:1:pos:R:3 #=T CELL(abcABC):=T 1.889726e+02=T 90.00000=T Traj:=T positionsangstrom=T Step:=T 0=T Bead:=T pbc="F F F"
C      -42.99190000     -35.05670000     -68.09990000
C      -44.24900000     -34.46340000     -68.28330000
C      -45.25040000     -35.10230000     -69.09570000
C      -44.90710000     -36.31230000     -69.79100000
C      -43.58600000     -36.81280000     -69.62510000
C      -42.65520000     -36.13240000     -68.88760000
H      -42.25290000     -34.50870000     -67.44480000
H      -46.30300000     -34.76150000     -69.10730000
H      -43.34150000     -37.64140000     -70.19270000
H      -41.64040000     -36.48280000     -68.83040000
C      -45.83960000     -36.95190000     -70.72250000
H      -46.84610000     -36.54720000     -70.62240000
H      -45.85740000     -38.03140000     -70.56350000
C      -44.77260000     -33.30860000     -67.61310000
H      -45.89350000     -33.21170000     -67.70340000
H      -44.50690000     -33.43290000     -66.53140000
S      -45.25480000     -36.72930000     -72.51420000
S      -43.98350000     -31.62610000     -68.00590000
C      -44.09970000     -35.32600000     -72.47300000
H      -43.22480000     -35.48710000     -71.87950000
H      -43.65900000     -35.26110000     -73.48540000
C      -44.47130000     -31.44490000     -69.77610000
H      -43.88810000     -32.25390000     -70.25490000
H      -44.06250000     -30.50880000     -70.17160000
C      -45.97450000     -31.67600000     -70.08730000
H      -46.11460000     -32.76360000     -69.96520000
H      -46.71000000     -31.36480000     -69.30940000
C      -44.76830000     -33.99170000     -72.10410000
H      -43.95320000     -33.25840000     -71.78640000
H      -45.35380000     -34.08380000     -71.21220000
C      -45.57840000     -33.25230000     -73.08330000
C      -45.55240000     -33.56880000     -74.41940000
C      -46.29550000     -32.00640000     -72.74390000
H      -44.88160000     -34.25400000     -75.00990000
C      -46.73050000     -31.37240000     -73.86530000
C      -46.43490000     -31.27610000     -71.48490000
C      -47.06200000     -30.06270000     -71.71530000
S      -46.48520000     -32.26570000     -75.39620000
S      -47.42850000     -29.80380000     -73.41970000
H      -47.20200000     -29.33280000     -70.93260000
