40
Properties=species:S:1:pos:R:3 #=T CELL(abcABC):=T 1.889726e+02=T 90.00000=T Traj:=T positionsangstrom=T Step:=T 0=T Bead:=T pbc="F F F"
C      -46.28390000     -33.69930000     -67.55120000
C      -46.74590000     -34.60260000     -68.53360000
C      -45.81820000     -35.50130000     -69.11100000
C      -44.46470000     -35.38500000     -68.76770000
C      -44.01460000     -34.43500000     -67.80140000
C      -44.91680000     -33.58940000     -67.22120000
H      -46.99920000     -33.08330000     -67.02910000
H      -46.17020000     -36.26010000     -69.81140000
H      -42.87000000     -34.36030000     -67.53890000
H      -44.64030000     -32.81950000     -66.53550000
C      -43.40400000     -36.43540000     -69.20950000
H      -43.53800000     -37.48450000     -68.83100000
H      -42.43110000     -36.02100000     -68.73500000
C      -48.19550000     -34.71750000     -68.96900000
H      -48.23260000     -35.49690000     -69.70440000
H      -48.71660000     -35.19480000     -68.17340000
S      -43.37030000     -36.59360000     -71.03720000
S      -48.92210000     -33.14790000     -69.66450000
C      -43.48620000     -34.91230000     -71.69640000
H      -43.89570000     -34.22450000     -70.83350000
H      -42.55640000     -34.60290000     -72.14260000
C      -47.82180000     -33.06840000     -71.14190000
H      -48.29340000     -32.36570000     -71.80000000
H      -47.84430000     -34.05380000     -71.62430000
C      -46.38040000     -32.63090000     -70.88790000
H      -46.42160000     -31.95980000     -70.01380000
H      -45.86880000     -33.54650000     -70.57080000
C      -44.48230000     -34.77750000     -72.84480000
H      -45.54090000     -35.06630000     -72.57220000
H      -44.16540000     -35.60690000     -73.56970000
C      -44.39590000     -33.46630000     -73.56730000
C      -43.69100000     -33.36010000     -74.76890000
C      -44.97840000     -32.21020000     -73.16910000
H      -43.15700000     -34.19730000     -75.17030000
C      -44.55000000     -31.12450000     -73.94250000
C      -45.77640000     -31.79130000     -72.06680000
C      -46.02350000     -30.40810000     -72.09640000
S      -43.72580000     -31.69230000     -75.40210000
S      -45.17330000     -29.64780000     -73.39610000
H      -46.55570000     -29.81140000     -71.37480000
