40
Properties=species:S:1:pos:R:3 #=T CELL(abcABC):=T 1.889726e+02=T 90.00000=T Traj:=T positionsangstrom=T Step:=T 0=T Bead:=T pbc="F F F"
C      -43.05470000     -34.79830000     -68.08600000
C      -44.36090000     -34.45420000     -68.29920000
C      -45.24330000     -35.23370000     -69.11280000
C      -44.78230000     -36.36430000     -69.69820000
C      -43.45890000     -36.74920000     -69.54210000
C      -42.61670000     -36.01450000     -68.69790000
H      -42.30870000     -34.21550000     -67.58660000
H      -46.25780000     -34.90750000     -69.28280000
H      -42.95400000     -37.59970000     -70.04320000
H      -41.55770000     -36.25990000     -68.66310000
C      -45.68130000     -37.10510000     -70.54640000
H      -46.67860000     -36.71010000     -70.37650000
H      -45.79960000     -38.15090000     -70.28440000
C      -44.85560000     -33.22670000     -67.58050000
H      -45.94140000     -33.03080000     -67.63020000
H      -44.59540000     -33.26320000     -66.48980000
S      -45.10270000     -37.16390000     -72.26890000
S      -43.95070000     -31.62890000     -68.11790000
C      -44.41080000     -35.50470000     -72.68130000
H      -43.43410000     -35.45010000     -72.11180000
H      -44.21400000     -35.40500000     -73.77690000
C      -44.61050000     -31.21710000     -69.80020000
H      -43.82290000     -31.51250000     -70.51230000
H      -44.54110000     -30.10030000     -69.86410000
C      -46.02550000     -31.66300000     -70.15540000
H      -46.05250000     -32.74830000     -70.18620000
H      -46.69520000     -31.33330000     -69.35640000
C      -45.23470000     -34.27830000     -72.09110000
H      -44.59520000     -33.74290000     -71.38400000
H      -46.14930000     -34.64670000     -71.53840000
C      -45.71900000     -33.27600000     -73.13290000
C      -45.72720000     -33.41070000     -74.48630000
C      -46.19930000     -31.93520000     -72.77610000
H      -45.69700000     -34.36810000     -74.93370000
C      -46.48020000     -31.16460000     -73.95040000
C      -46.46100000     -31.21540000     -71.54920000
C      -47.16690000     -30.08230000     -71.78340000
S      -46.39810000     -32.08950000     -75.35780000
S      -47.27620000     -29.71240000     -73.55320000
H      -47.53350000     -29.38950000     -71.01820000
