40
Properties=species:S:1:pos:R:3 #=T CELL(abcABC):=T 1.889726e+02=T 90.00000=T Traj:=T positionsangstrom=T Step:=T 0=T Bead:=T pbc="F F F"
C      -42.84700000     -34.48680000     -68.13520000
C      -44.23330000     -34.24780000     -68.19700000
C      -44.99370000     -35.16720000     -68.94580000
C      -44.43440000     -36.25620000     -69.52890000
C      -43.00980000     -36.52850000     -69.42700000
C      -42.25690000     -35.61090000     -68.68700000
H      -42.21100000     -33.82600000     -67.53700000
H      -46.08580000     -35.04460000     -69.00200000
H      -42.69110000     -37.43720000     -69.81190000
H      -41.25540000     -35.88330000     -68.36380000
C      -45.38550000     -37.30580000     -70.12130000
H      -46.41280000     -37.19250000     -69.79200000
H      -45.18380000     -38.32090000     -69.86620000
C      -44.89680000     -33.09540000     -67.57370000
H      -45.90800000     -33.12300000     -67.87680000
H      -44.74440000     -33.08060000     -66.47770000
S      -45.38370000     -37.32590000     -71.96800000
S      -44.15110000     -31.52790000     -68.18180000
C      -44.89650000     -35.63360000     -72.61020000
H      -43.82210000     -35.25670000     -72.45810000
H      -44.94600000     -35.77930000     -73.70640000
C      -44.65780000     -31.55170000     -69.97040000
H      -44.12140000     -32.40140000     -70.54920000
H      -44.32590000     -30.58730000     -70.33520000
C      -46.16750000     -31.64170000     -70.26720000
H      -46.61700000     -32.55770000     -69.89120000
H      -46.61950000     -30.93080000     -69.62300000
C      -45.85750000     -34.53180000     -72.19670000
H      -45.57430000     -34.09880000     -71.18240000
H      -46.88910000     -34.90560000     -72.06930000
C      -45.91880000     -33.41740000     -73.21630000
C      -45.97820000     -33.61200000     -74.55660000
C      -46.25630000     -32.00990000     -72.88330000
H      -45.73240000     -34.53550000     -75.12070000
C      -46.59570000     -31.29350000     -74.03190000
C      -46.45350000     -31.14890000     -71.69230000
C      -46.84480000     -29.90910000     -71.97620000
S      -46.25260000     -32.19420000     -75.49920000
S      -47.04580000     -29.59610000     -73.63630000
H      -47.15390000     -29.23000000     -71.20700000
