40
Properties=species:S:1:pos:R:3 #=T CELL(abcABC):=T 1.889726e+02=T 90.00000=T Traj:=T positionsangstrom=T Step:=T 0=T Bead:=T pbc="F F F"
C      -42.58820000     -34.42180000     -68.42780000
C      -43.93530000     -34.26220000     -68.01410000
C      -44.88650000     -35.21460000     -68.52400000
C      -44.54860000     -36.29070000     -69.34900000
C      -43.20680000     -36.43060000     -69.72940000
C      -42.27300000     -35.49470000     -69.33320000
H      -41.87950000     -33.66470000     -68.26440000
H      -45.92030000     -35.09000000     -68.22200000
H      -42.87920000     -37.22880000     -70.49430000
H      -41.19040000     -35.63220000     -69.51660000
C      -45.55200000     -37.14930000     -69.92800000
H      -46.55750000     -37.00360000     -69.59020000
H      -45.36300000     -38.15050000     -69.54990000
C      -44.46960000     -33.16090000     -67.10810000
H      -45.48190000     -33.30510000     -66.77880000
H      -43.81360000     -32.87950000     -66.26760000
S      -45.42090000     -37.28230000     -71.79030000
S      -44.79780000     -31.47600000     -68.02350000
C      -45.33160000     -35.45380000     -72.25250000
H      -44.73270000     -34.88760000     -71.56460000
H      -44.86380000     -35.41120000     -73.25760000
C      -44.78590000     -31.74720000     -69.88530000
H      -44.39500000     -32.74770000     -70.18170000
H      -44.06960000     -31.00960000     -70.25380000
C      -46.28600000     -31.61650000     -70.33540000
H      -46.85140000     -32.52500000     -70.16220000
H      -46.84180000     -30.84360000     -69.73190000
C      -46.69260000     -34.72110000     -72.39110000
H      -47.16810000     -34.45620000     -71.44470000
H      -47.29930000     -35.43080000     -72.90510000
C      -46.52390000     -33.52880000     -73.25140000
C      -46.43920000     -33.73570000     -74.61420000
C      -46.35250000     -32.03050000     -72.98670000
H      -46.55380000     -34.77600000     -74.96440000
C      -46.13350000     -31.29940000     -74.14450000
C      -46.30650000     -31.21150000     -71.79940000
C      -46.31830000     -29.87840000     -72.12130000
S      -46.17850000     -32.30420000     -75.58560000
S      -46.02110000     -29.50980000     -73.82990000
H      -46.36240000     -29.05700000     -71.37660000
