40
Properties=species:S:1:pos:R:3 #=T CELL(abcABC):=T 1.889726e+02=T 90.00000=T Traj:=T positionsangstrom=T Step:=T 0=T Bead:=T pbc="F F F"
C      -42.86840000     -34.63760000     -68.17530000
C      -44.28610000     -34.32100000     -68.25970000
C      -45.14400000     -35.18870000     -68.91420000
C      -44.61070000     -36.35120000     -69.55170000
C      -43.31520000     -36.74400000     -69.31680000
C      -42.40410000     -35.86420000     -68.64700000
H      -42.10150000     -33.98100000     -67.71460000
H      -46.25080000     -34.99220000     -68.93370000
H      -42.90670000     -37.67530000     -69.67020000
H      -41.37790000     -36.16980000     -68.52340000
C      -45.50840000     -37.36760000     -70.39480000
H      -46.56370000     -37.13080000     -70.12610000
H      -45.18990000     -38.38140000     -70.09090000
C      -44.88070000     -33.05470000     -67.63920000
H      -46.00060000     -33.02890000     -67.75900000
H      -44.76240000     -33.12420000     -66.58810000
S      -45.26860000     -37.28800000     -72.23390000
S      -44.16700000     -31.37820000     -68.11580000
C      -44.62390000     -35.58270000     -72.49240000
H      -43.83120000     -35.53630000     -71.85040000
H      -44.19860000     -35.54220000     -73.50130000
C      -44.53800000     -31.34340000     -69.96100000
H      -43.92930000     -32.09790000     -70.44100000
H      -44.27770000     -30.36230000     -70.34900000
C      -45.98240000     -31.60770000     -70.24110000
H      -46.17170000     -32.70240000     -70.09510000
H      -46.64770000     -31.09930000     -69.52050000
C      -45.64710000     -34.44090000     -72.21780000
H      -45.39870000     -34.07530000     -71.22450000
H      -46.62210000     -34.91960000     -72.08060000
C      -45.83640000     -33.33200000     -73.24130000
C      -45.68390000     -33.50190000     -74.57060000
C      -46.19680000     -32.02000000     -72.83340000
H      -45.40410000     -34.42780000     -75.04020000
C      -46.67590000     -31.31020000     -73.93240000
C      -46.37790000     -31.24510000     -71.66370000
C      -46.89410000     -30.02610000     -71.84080000
S      -46.29100000     -32.06280000     -75.44600000
S      -47.23920000     -29.72250000     -73.54380000
H      -46.94990000     -29.21860000     -71.10840000
