40
Properties=species:S:1:pos:R:3 #=T CELL(abcABC):=T 1.889726e+02=T 90.00000=T Traj:=T positionsangstrom=T Step:=T 0=T Bead:=T pbc="F F F"
C      -42.78300000     -34.44630000     -68.14460000
C      -44.20490000     -34.31590000     -67.99910000
C      -44.98030000     -35.28750000     -68.66370000
C      -44.44190000     -36.31640000     -69.45050000
C      -43.06150000     -36.35530000     -69.66850000
C      -42.27260000     -35.45150000     -68.93840000
H      -42.16770000     -33.69130000     -67.66510000
H      -46.04930000     -35.31210000     -68.61740000
H      -42.63720000     -37.09270000     -70.35390000
H      -41.21630000     -35.42210000     -69.20680000
C      -45.34670000     -37.33290000     -70.06780000
H      -46.32760000     -37.02780000     -69.64910000
H      -45.08230000     -38.35370000     -69.78540000
C      -44.78800000     -33.09370000     -67.33380000
H      -45.86900000     -33.14080000     -67.18990000
H      -44.43390000     -32.87380000     -66.30110000
S      -45.44470000     -37.38470000     -71.92230000
S      -44.35250000     -31.47580000     -68.25160000
C      -44.98130000     -35.66310000     -72.51540000
H      -43.96280000     -35.30900000     -72.21320000
H      -45.03830000     -35.82290000     -73.54980000
C      -44.75100000     -31.84580000     -70.01990000
H      -44.51260000     -32.87730000     -70.21220000
H      -44.04440000     -31.27850000     -70.59610000
C      -46.25340000     -31.64000000     -70.29230000
H      -46.72080000     -32.65550000     -70.21680000
H      -46.73250000     -30.90990000     -69.64030000
C      -45.94070000     -34.53190000     -72.12100000
H      -45.50480000     -34.12470000     -71.24830000
H      -46.90960000     -34.88520000     -71.86520000
C      -46.00990000     -33.40170000     -73.13160000
C      -46.06470000     -33.68340000     -74.49190000
C      -46.27750000     -32.00650000     -72.89450000
H      -45.92050000     -34.63610000     -75.04910000
C      -46.42880000     -31.24600000     -74.04770000
C      -46.44770000     -31.13170000     -71.73120000
C      -46.79200000     -29.84560000     -72.02750000
S      -46.26800000     -32.15850000     -75.48650000
S      -46.71890000     -29.55960000     -73.81100000
H      -47.04080000     -29.10580000     -71.28170000
