40
Properties=species:S:1:pos:R:3 #=T CELL(abcABC):=T 1.889726e+02=T 90.00000=T Traj:=T positionsangstrom=T Step:=T 0=T Bead:=T pbc="F F F"
C      -42.64570000     -34.38310000     -68.50070000
C      -44.00460000     -34.21840000     -68.05260000
C      -44.90910000     -35.21260000     -68.48330000
C      -44.50920000     -36.19430000     -69.39500000
C      -43.19020000     -36.41140000     -69.72120000
C      -42.24690000     -35.50830000     -69.16400000
H      -41.89870000     -33.76370000     -68.01420000
H      -45.93180000     -35.13840000     -68.09690000
H      -42.92010000     -37.22820000     -70.35980000
H      -41.19760000     -35.66920000     -69.37630000
C      -45.56030000     -37.20750000     -69.85300000
H      -46.56630000     -36.90250000     -69.44720000
H      -45.27020000     -38.22010000     -69.53160000
C      -44.39000000     -33.12100000     -67.08550000
H      -45.22680000     -33.44100000     -66.43770000
H      -43.55670000     -32.97560000     -66.33590000
S      -45.70200000     -37.19120000     -71.72630000
S      -44.93310000     -31.56220000     -67.86040000
C      -45.43000000     -35.43400000     -72.26490000
H      -44.75740000     -35.02030000     -71.48020000
H      -44.80830000     -35.45910000     -73.15930000
C      -44.89330000     -31.65640000     -69.67910000
H      -44.23900000     -32.44570000     -70.03640000
H      -44.52850000     -30.70360000     -70.03620000
C      -46.29850000     -31.75890000     -70.37640000
H      -46.62200000     -32.77980000     -70.28350000
H      -47.01190000     -31.16330000     -69.85050000
C      -46.71280000     -34.64480000     -72.43190000
H      -47.00570000     -34.22790000     -71.45370000
H      -47.49810000     -35.30960000     -72.78560000
C      -46.57300000     -33.50430000     -73.41300000
C      -46.55650000     -33.63730000     -74.80720000
C      -46.23070000     -32.11690000     -73.09660000
H      -46.64980000     -34.60830000     -75.30150000
C      -46.07290000     -31.31580000     -74.20790000
C      -46.14280000     -31.35960000     -71.89280000
C      -45.78080000     -30.02270000     -72.10380000
S      -46.26170000     -32.14840000     -75.70180000
S      -45.72640000     -29.64190000     -73.85320000
H      -45.76450000     -29.23710000     -71.35360000
