40
Properties=species:S:1:pos:R:3 #=T CELL(abcABC):=T 1.889726e+02=T 90.00000=T Traj:=T positionsangstrom=T Step:=T 0=T Bead:=T pbc="F F F"
C      -42.69480000     -36.33990000     -71.74980000
C      -42.10230000     -35.06250000     -71.64010000
C      -42.02030000     -34.24510000     -72.78010000
C      -42.92920000     -34.44910000     -73.80050000
C      -43.51910000     -35.74750000     -73.92350000
C      -43.35150000     -36.66890000     -72.90240000
H      -42.65420000     -37.06760000     -70.94140000
H      -41.38450000     -33.35980000     -72.59320000
H      -44.22390000     -35.96930000     -74.70800000
H      -43.92170000     -37.68080000     -72.98830000
C      -43.22290000     -33.43200000     -74.92000000
H      -42.83430000     -33.72250000     -75.92280000
H      -42.83190000     -32.45880000     -74.68840000
C      -41.41020000     -34.64800000     -70.34670000
H      -41.11210000     -35.45550000     -69.77970000
H      -40.45990000     -34.07750000     -70.54310000
S      -45.05390000     -33.03650000     -75.17070000
S      -42.53060000     -33.53400000     -69.26620000
C      -45.69010000     -32.13740000     -73.56580000
H      -44.84010000     -31.76970000     -72.96180000
H      -46.30550000     -31.29860000     -73.92750000
C      -44.09400000     -33.40670000     -70.20400000
H      -43.92090000     -33.48240000     -71.33390000
H      -44.34520000     -32.33790000     -70.12940000
C      -45.21260000     -34.34070000     -69.80370000
H      -45.59690000     -34.95440000     -70.54580000
H      -44.74270000     -34.91750000     -69.05800000
C      -46.54670000     -33.17320000     -72.73740000
H      -45.80800000     -33.85340000     -72.39570000
H      -47.19580000     -33.72210000     -73.39300000
C      -47.45250000     -32.60350000     -71.64790000
C      -48.53590000     -31.79700000     -71.96480000
C      -47.27010000     -32.76950000     -70.20190000
H      -48.92770000     -31.38450000     -72.90500000
C      -48.22760000     -32.05040000     -69.46860000
C      -46.39700000     -33.53840000     -69.29650000
C      -46.55870000     -33.26230000     -67.99720000
S      -49.40360000     -31.30840000     -70.54410000
S      -47.92790000     -32.02610000     -67.73020000
H      -45.93750000     -33.68890000     -67.24400000
