40
Properties=species:S:1:pos:R:3 #=T CELL(abcABC):=T 1.889726e+02=T 90.00000=T Traj:=T positionsangstrom=T Step:=T 0=T Bead:=T pbc="F F F"
C      -42.51280000     -34.58280000     -68.39380000
C      -43.80490000     -34.17470000     -67.91590000
C      -44.95170000     -34.89220000     -68.29400000
C      -44.86670000     -36.03230000     -69.09720000
C      -43.60230000     -36.44580000     -69.55830000
C      -42.47800000     -35.69080000     -69.22040000
H      -41.63510000     -34.04470000     -68.16530000
H      -45.86600000     -34.48590000     -67.87710000
H      -43.38560000     -37.26290000     -70.24270000
H      -41.52540000     -36.08960000     -69.70550000
C      -46.08550000     -36.72960000     -69.64510000
H      -46.99120000     -36.11420000     -69.52490000
H      -46.16460000     -37.71840000     -69.21770000
C      -44.06770000     -32.81650000     -67.06330000
H      -44.22320000     -33.12830000     -66.05560000
H      -43.21320000     -32.14040000     -67.02240000
S      -45.82520000     -36.98290000     -71.50760000
S      -45.52900000     -31.94670000     -67.75580000
C      -45.65760000     -35.34130000     -72.29790000
H      -45.00830000     -34.77520000     -71.60840000
H      -45.03400000     -35.61200000     -73.21850000
C      -44.95990000     -31.36820000     -69.44600000
H      -43.97300000     -31.79620000     -69.56360000
H      -44.96420000     -30.24330000     -69.62080000
C      -45.72840000     -31.99480000     -70.58520000
H      -45.76080000     -33.08340000     -70.45790000
H      -46.80930000     -31.70260000     -70.52800000
C      -46.95350000     -34.55770000     -72.54960000
H      -47.27360000     -34.08040000     -71.57360000
H      -47.71080000     -35.25520000     -72.98480000
C      -46.66450000     -33.45160000     -73.56880000
C      -47.00090000     -33.49820000     -74.86910000
C      -46.01260000     -32.19660000     -73.23660000
H      -47.44830000     -34.27830000     -75.46490000
C      -45.80250000     -31.40930000     -74.37210000
C      -45.42940000     -31.50280000     -72.00920000
C      -44.82520000     -30.36850000     -72.32970000
S      -46.56680000     -32.02510000     -75.80590000
S      -44.98170000     -29.92430000     -74.06490000
H      -44.43340000     -29.60420000     -71.66490000
