40
Properties=species:S:1:pos:R:3 #=T CELL(abcABC):=T 1.889726e+02=T 90.00000=T Traj:=T positionsangstrom=T Step:=T 0=T Bead:=T pbc="F F F"
C      -47.61070000     -35.83740000     -71.79760000
C      -47.41580000     -35.33540000     -73.08080000
C      -47.77850000     -33.96830000     -73.33550000
C      -48.40230000     -33.20100000     -72.30220000
C      -48.43140000     -33.70630000     -71.03550000
C      -48.13600000     -35.02890000     -70.77510000
H      -47.46290000     -36.94700000     -71.60930000
H      -47.66080000     -33.62560000     -74.40230000
H      -48.82650000     -33.18550000     -70.17760000
H      -48.14260000     -35.53090000     -69.86130000
C      -48.90250000     -31.80780000     -72.62800000
H      -49.87260000     -31.51820000     -72.12970000
H      -49.30340000     -31.90390000     -73.59410000
C      -46.65810000     -35.98630000     -74.18810000
H      -46.65210000     -37.09500000     -73.95490000
H      -47.07860000     -35.82320000     -75.21930000
S      -47.65850000     -30.53710000     -72.60800000
S      -44.93310000     -35.24540000     -74.40520000
C      -46.63190000     -30.99760000     -71.11780000
H      -46.47770000     -30.18440000     -70.37550000
H      -47.09360000     -31.87020000     -70.58030000
C      -44.33970000     -35.08190000     -72.73400000
H      -44.08080000     -36.14060000     -72.29320000
H      -45.16500000     -34.76590000     -72.15110000
C      -43.19320000     -33.99350000     -72.46640000
H      -42.29080000     -34.31840000     -73.08120000
H      -43.39210000     -33.07110000     -72.91850000
C      -45.23950000     -31.57460000     -71.54190000
H      -44.69440000     -30.72690000     -72.08750000
H      -45.34980000     -32.39940000     -72.27420000
C      -44.48760000     -31.98680000     -70.30800000
C      -44.75130000     -31.41250000     -69.04520000
C      -43.38460000     -32.91860000     -70.13650000
H      -45.40760000     -30.56450000     -68.84590000
C      -42.85050000     -32.99940000     -68.85790000
C      -42.79480000     -33.88030000     -71.04930000
C      -41.82200000     -34.57380000     -70.45750000
S      -43.68360000     -31.94990000     -67.74710000
S      -41.75730000     -34.38160000     -68.72250000
H      -41.25010000     -35.38500000     -70.90530000
