40
Properties=species:S:1:pos:R:3 #=T CELL(abcABC):=T 1.889726e+02=T 90.00000=T Traj:=T positionsangstrom=T Step:=T 0=T Bead:=T pbc="F F F"
C      -42.84880000     -34.45000000     -68.85220000
C      -44.07960000     -34.15610000     -68.25110000
C      -45.14310000     -35.01980000     -68.52360000
C      -45.07290000     -36.11480000     -69.30680000
C      -43.77100000     -36.48000000     -69.78480000
C      -42.61300000     -35.64370000     -69.56660000
H      -42.11960000     -33.61310000     -68.83870000
H      -46.10700000     -34.81710000     -68.06040000
H      -43.73000000     -37.37860000     -70.46690000
H      -41.71800000     -35.99130000     -69.90800000
C      -46.14140000     -37.08670000     -69.64480000
H      -47.10970000     -36.80980000     -69.14450000
H      -45.82080000     -38.07320000     -69.39070000
C      -44.25170000     -32.91040000     -67.43950000
H      -44.73280000     -33.20370000     -66.51620000
H      -43.27750000     -32.46800000     -67.14570000
S      -46.56430000     -37.16500000     -71.44320000
S      -45.42970000     -31.66780000     -68.06220000
C      -45.92030000     -35.76690000     -72.36300000
H      -44.85010000     -35.62780000     -72.25060000
H      -46.04800000     -36.03080000     -73.42570000
C      -44.57350000     -31.06060000     -69.54690000
H      -43.65600000     -30.61820000     -69.32710000
H      -45.22660000     -30.34100000     -69.99290000
C      -44.42370000     -32.12770000     -70.63410000
H      -43.39230000     -32.50200000     -70.62170000
H      -45.09170000     -32.96640000     -70.44110000
C      -46.77630000     -34.40510000     -72.04650000
H      -46.51660000     -34.17520000     -71.00840000
H      -47.81880000     -34.69950000     -71.94350000
C      -46.55100000     -33.33100000     -73.07940000
C      -47.24770000     -33.34970000     -74.27040000
C      -45.86130000     -32.03200000     -72.93120000
H      -47.95930000     -34.09620000     -74.72840000
C      -45.79850000     -31.26450000     -74.11970000
C      -44.75820000     -31.58650000     -71.98300000
C      -43.99370000     -30.62780000     -72.55230000
S      -46.89820000     -31.91350000     -75.33870000
S      -44.69880000     -29.93240000     -74.10050000
H      -43.15680000     -30.08960000     -72.02460000
