40
Properties=species:S:1:pos:R:3 #=T CELL(abcABC):=T 1.889726e+02=T 90.00000=T Traj:=T positionsangstrom=T Step:=T 0=T Bead:=T pbc="F F F"
C      -48.46570000     -33.30980000     -69.30410000
C      -47.80420000     -34.55400000     -69.46410000
C      -46.60750000     -34.81910000     -68.76930000
C      -46.12390000     -33.74290000     -67.91980000
C      -46.77370000     -32.47480000     -67.87840000
C      -47.92990000     -32.21120000     -68.67260000
H      -49.39300000     -33.25700000     -69.79670000
H      -46.03430000     -35.74730000     -68.89370000
H      -46.43070000     -31.68720000     -67.23080000
H      -48.48250000     -31.30800000     -68.71110000
C      -44.85590000     -33.86000000     -67.09830000
H      -44.97320000     -34.46190000     -66.14520000
H      -44.57590000     -32.84100000     -66.79760000
C      -48.41910000     -35.59370000     -70.32380000
H      -47.75850000     -36.44860000     -70.42620000
H      -49.29070000     -35.96930000     -69.84760000
S      -43.45680000     -34.54010000     -68.02470000
S      -48.76620000     -35.08110000     -72.02130000
C      -43.48010000     -33.38620000     -69.52940000
H      -44.30530000     -32.64170000     -69.54330000
H      -42.59050000     -32.83460000     -69.43460000
C      -47.15700000     -34.61010000     -72.78820000
H      -47.40160000     -34.53710000     -73.92570000
H      -46.51630000     -35.41670000     -72.76220000
C      -46.57230000     -33.32180000     -72.29070000
H      -47.41750000     -32.50130000     -72.11800000
H      -46.09370000     -33.59190000     -71.28950000
C      -43.49860000     -34.13590000     -70.84990000
H      -44.52200000     -34.57480000     -70.91990000
H      -42.87280000     -35.00430000     -70.89180000
C      -43.21960000     -33.27490000     -72.08900000
C      -41.89620000     -32.90860000     -72.40130000
C      -44.13640000     -32.84460000     -73.11590000
H      -41.03160000     -33.20600000     -71.85420000
C      -43.48460000     -32.04480000     -74.08560000
C      -45.58250000     -32.74290000     -73.26470000
C      -45.90100000     -31.96130000     -74.31220000
S      -41.74800000     -31.97980000     -73.93250000
S      -44.52050000     -31.35920000     -75.24420000
H      -46.89900000     -31.82120000     -74.60550000
