40
Properties=species:S:1:pos:R:3 #=T CELL(abcABC):=T 1.889726e+02=T 90.00000=T Traj:=T positionsangstrom=T Step:=T 0=T Bead:=T pbc="F F F"
C      -48.35710000     -33.26910000     -68.94480000
C      -47.81000000     -34.49190000     -69.35340000
C      -46.52560000     -34.83640000     -68.83680000
C      -45.77290000     -33.95550000     -68.03500000
C      -46.36460000     -32.76850000     -67.59750000
C      -47.66160000     -32.48380000     -68.00260000
H      -49.30950000     -32.96740000     -69.39380000
H      -46.04600000     -35.80140000     -69.03070000
H      -45.82580000     -32.10410000     -66.88530000
H      -48.18190000     -31.54520000     -67.78990000
C      -44.39250000     -34.30670000     -67.45360000
H      -44.52600000     -35.07810000     -66.64560000
H      -43.94780000     -33.36430000     -67.14930000
C      -48.56110000     -35.38340000     -70.25480000
H      -48.13220000     -36.34910000     -70.22190000
H      -49.55620000     -35.59080000     -69.89920000
S      -43.36100000     -35.16940000     -68.75090000
S      -48.70010000     -34.94990000     -72.09180000
C      -43.29000000     -33.88190000     -70.07580000
H      -44.12790000     -33.12460000     -70.00760000
H      -42.27600000     -33.37570000     -69.96740000
C      -46.95850000     -34.52540000     -72.48880000
H      -47.03090000     -34.46040000     -73.55860000
H      -46.15180000     -35.35420000     -72.19980000
C      -46.51390000     -33.18110000     -71.92080000
H      -47.34440000     -32.58020000     -71.61570000
H      -45.96480000     -33.38720000     -70.98080000
C      -43.47650000     -34.57920000     -71.39850000
H      -44.43470000     -34.93150000     -71.50830000
H      -42.75350000     -35.46210000     -71.58920000
C      -43.22700000     -33.47210000     -72.43830000
C      -42.03110000     -33.28160000     -73.05020000
C      -44.26530000     -32.65930000     -73.04870000
H      -41.13880000     -33.87730000     -72.81500000
C      -43.74360000     -31.63250000     -73.90740000
C      -45.69890000     -32.36410000     -72.86270000
C      -46.19420000     -31.36650000     -73.62040000
S      -41.99580000     -31.85130000     -74.07770000
S      -44.91630000     -30.67240000     -74.64440000
H      -47.19060000     -30.93460000     -73.38250000
