40
Properties=species:S:1:pos:R:3 #=T CELL(abcABC):=T 1.889726e+02=T 90.00000=T Traj:=T positionsangstrom=T Step:=T 0=T Bead:=T pbc="F F F"
C      -47.58670000     -35.78230000     -71.99520000
C      -47.44390000     -35.13180000     -73.27850000
C      -47.94440000     -33.82510000     -73.44420000
C      -48.59050000     -33.14200000     -72.32100000
C      -48.73610000     -33.83690000     -71.20150000
C      -48.15920000     -35.08520000     -70.96830000
H      -47.09290000     -36.74060000     -71.82790000
H      -47.71230000     -33.39300000     -74.43030000
H      -49.36700000     -33.36750000     -70.46070000
H      -48.18180000     -35.60450000     -70.03220000
C      -49.06410000     -31.69790000     -72.48240000
H      -49.71860000     -31.41790000     -71.66040000
H      -49.42590000     -31.53430000     -73.49430000
C      -46.67460000     -35.86120000     -74.38990000
H      -46.57180000     -36.95900000     -74.20540000
H      -47.00990000     -35.77050000     -75.34630000
S      -47.61650000     -30.40940000     -72.42240000
S      -44.85770000     -35.32480000     -74.47500000
C      -46.56220000     -30.86860000     -70.95840000
H      -46.40340000     -29.92430000     -70.50810000
H      -47.22790000     -31.54330000     -70.42670000
C      -44.41030000     -35.00520000     -72.63040000
H      -44.25440000     -35.94470000     -72.14950000
H      -45.27250000     -34.46620000     -72.21590000
C      -43.12300000     -34.23920000     -72.53020000
H      -42.30590000     -34.83460000     -72.85860000
H      -43.15840000     -33.24270000     -73.03120000
C      -45.23620000     -31.50300000     -71.41080000
H      -44.66360000     -30.76670000     -71.91900000
H      -45.46180000     -32.32180000     -72.10390000
C      -44.35320000     -31.91930000     -70.24050000
C      -44.51510000     -31.32570000     -68.96820000
C      -43.46250000     -33.06780000     -70.14450000
H      -45.01040000     -30.38770000     -68.71970000
C      -42.94870000     -33.18430000     -68.87650000
C      -42.87500000     -34.03060000     -71.04310000
C      -41.85960000     -34.69940000     -70.47000000
S      -43.64610000     -32.14590000     -67.69330000
S      -41.65090000     -34.30920000     -68.70830000
H      -41.16000000     -35.45150000     -71.00590000
