40
Properties=species:S:1:pos:R:3 #=T CELL(abcABC):=T 1.889726e+02=T 90.00000=T Traj:=T positionsangstrom=T Step:=T 0=T Bead:=T pbc="F F F"
C      -48.49880000     -33.30770000     -69.35030000
C      -47.86280000     -34.53460000     -69.53010000
C      -46.70710000     -34.84940000     -68.72960000
C      -46.11320000     -33.82720000     -68.00190000
C      -46.64350000     -32.51290000     -67.93550000
C      -47.85280000     -32.32670000     -68.58700000
H      -49.38660000     -33.00150000     -69.85380000
H      -46.42610000     -35.90470000     -68.67370000
H      -46.05100000     -31.80510000     -67.45290000
H      -48.36420000     -31.35360000     -68.61300000
C      -44.87140000     -34.18090000     -67.30290000
H      -44.97460000     -35.08110000     -66.67330000
H      -44.66540000     -33.32260000     -66.67260000
C      -48.40460000     -35.67170000     -70.36370000
H      -47.80010000     -36.60670000     -70.39030000
H      -49.43350000     -36.02200000     -69.97300000
S      -43.31270000     -34.55190000     -68.28040000
S      -48.80900000     -35.09570000     -72.07050000
C      -43.34240000     -33.44380000     -69.67300000
H      -44.16960000     -32.71090000     -69.72510000
H      -42.35300000     -32.93280000     -69.60280000
C      -47.11760000     -34.61000000     -72.63730000
H      -47.10980000     -34.73450000     -73.80420000
H      -46.46650000     -35.36430000     -72.22070000
C      -46.65520000     -33.25820000     -72.18020000
H      -47.52170000     -32.66220000     -72.27440000
H      -46.38180000     -33.25760000     -71.15980000
C      -43.44960000     -34.22280000     -70.97890000
H      -44.41150000     -34.70600000     -71.11130000
H      -42.59710000     -34.98280000     -70.94460000
C      -43.17840000     -33.31170000     -72.16740000
C      -41.83700000     -33.01290000     -72.51550000
C      -44.15060000     -32.66210000     -72.94460000
H      -40.95740000     -33.38050000     -72.02360000
C      -43.56440000     -31.77060000     -73.90390000
C      -45.55890000     -32.60040000     -73.04110000
C      -45.96490000     -31.88160000     -74.11370000
S      -41.76610000     -31.95440000     -73.83310000
S      -44.67000000     -31.23530000     -75.10350000
H      -47.01730000     -31.68260000     -74.35240000
