40
Properties=species:S:1:pos:R:3 #=T CELL(abcABC):=T 1.889726e+02=T 90.00000=T Traj:=T positionsangstrom=T Step:=T 0=T Bead:=T pbc="F F F"
C      -42.33210000     -35.25720000     -69.28060000
C      -42.39770000     -33.88090000     -69.52760000
C      -42.36590000     -33.45240000     -70.83850000
C      -42.08690000     -34.30440000     -71.91880000
C      -42.02550000     -35.65310000     -71.63080000
C      -42.05060000     -36.14050000     -70.33070000
H      -42.22550000     -35.60120000     -68.21950000
H      -42.51660000     -32.41500000     -71.02780000
H      -41.99820000     -36.33450000     -72.50420000
H      -42.10860000     -37.18590000     -70.03630000
C      -42.04510000     -33.85500000     -73.31830000
H      -41.06800000     -34.14560000     -73.79490000
H      -42.24620000     -32.79430000     -73.40280000
C      -42.58440000     -32.84390000     -68.37220000
H      -41.77390000     -32.90720000     -67.61780000
H      -42.55010000     -31.80460000     -68.73900000
S      -43.26660000     -34.85290000     -74.34650000
S      -44.19400000     -32.95470000     -67.38710000
C      -44.76490000     -33.92600000     -74.43940000
H      -44.55200000     -32.97820000     -74.99660000
H      -45.47670000     -34.57700000     -74.97130000
C      -45.33360000     -32.38860000     -68.73760000
H      -44.78240000     -31.67310000     -69.42170000
H      -46.14420000     -31.89710000     -68.27590000
C      -45.89300000     -33.55290000     -69.60610000
H      -45.13590000     -33.93060000     -70.31910000
H      -46.05300000     -34.46340000     -68.92240000
C      -45.22680000     -33.49900000     -73.01100000
H      -44.40870000     -32.86620000     -72.52340000
H      -45.25570000     -34.39760000     -72.36520000
C      -46.57000000     -32.79580000     -72.97030000
C      -47.33560000     -32.34450000     -74.04660000
C      -47.36810000     -32.69330000     -71.73570000
H      -46.94570000     -32.55320000     -75.07660000
C      -48.68910000     -32.22900000     -71.95830000
C      -47.19130000     -33.08800000     -70.30640000
C      -48.35630000     -32.95430000     -69.56240000
S      -48.93820000     -31.92230000     -73.70300000
S      -49.60320000     -32.15670000     -70.51300000
H      -48.45880000     -32.99120000     -68.52030000
