40
Properties=species:S:1:pos:R:3 #=T CELL(abcABC):=T 1.889726e+02=T 90.00000=T Traj:=T positionsangstrom=T Step:=T 0=T Bead:=T pbc="F F F"
C      -48.86750000     -33.42640000     -69.64120000
C      -47.92270000     -34.48750000     -69.69150000
C      -46.81870000     -34.38910000     -68.84650000
C      -46.59210000     -33.27090000     -68.01990000
C      -47.58280000     -32.28480000     -67.96870000
C      -48.67110000     -32.32780000     -68.81440000
H      -49.74610000     -33.50920000     -70.29400000
H      -46.09930000     -35.13860000     -68.96940000
H      -47.37540000     -31.35070000     -67.36460000
H      -49.44600000     -31.60390000     -68.87830000
C      -45.52430000     -33.26700000     -66.99640000
H      -45.76170000     -33.99640000     -66.25620000
H      -45.55190000     -32.29200000     -66.43490000
C      -48.02200000     -35.70110000     -70.57350000
H      -47.05700000     -36.23950000     -70.42680000
H      -48.80720000     -36.47080000     -70.22410000
S      -43.86780000     -33.70230000     -67.63820000
S      -48.29970000     -35.50530000     -72.38380000
C      -43.76600000     -32.78570000     -69.32110000
H      -44.36080000     -31.90950000     -69.23780000
H      -42.74500000     -32.49030000     -69.41850000
C      -46.72230000     -34.70430000     -73.02280000
H      -46.59750000     -34.92750000     -74.07250000
H      -45.87260000     -35.11960000     -72.43200000
C      -46.63990000     -33.16910000     -72.90980000
H      -47.56580000     -32.70400000     -73.50390000
H      -46.76010000     -32.83020000     -71.82240000
C      -44.14980000     -33.73670000     -70.50870000
H      -45.18550000     -33.56590000     -70.57740000
H      -44.04790000     -34.80260000     -70.29640000
C      -43.39930000     -33.31490000     -71.78140000
C      -42.04870000     -33.21580000     -71.82490000
C      -44.07110000     -32.93230000     -73.03890000
H      -41.34610000     -33.51200000     -71.00350000
C      -43.09370000     -32.46200000     -73.91520000
C      -45.40890000     -32.68720000     -73.52180000
C      -45.36110000     -32.09610000     -74.76720000
S      -41.39480000     -32.59030000     -73.34020000
S      -43.77660000     -31.85170000     -75.43910000
H      -46.11760000     -31.78100000     -75.38760000
