40
Properties=species:S:1:pos:R:3 #=T CELL(abcABC):=T 1.889726e+02=T 90.00000=T Traj:=T positionsangstrom=T Step:=T 0=T Bead:=T pbc="F F F"
C      -49.10180000     -33.15070000     -70.90410000
C      -48.43760000     -34.22520000     -70.31540000
C      -47.47580000     -33.97150000     -69.33000000
C      -47.35030000     -32.67710000     -68.83800000
C      -48.00910000     -31.62570000     -69.40810000
C      -48.85370000     -31.84830000     -70.49560000
H      -49.78790000     -33.36010000     -71.78300000
H      -46.77950000     -34.82290000     -68.98770000
H      -47.71570000     -30.61720000     -69.12480000
H      -49.44080000     -31.03210000     -71.00950000
C      -46.32600000     -32.35780000     -67.70600000
H      -46.88320000     -32.35300000     -66.73140000
H      -46.03780000     -31.31900000     -67.81150000
C      -48.61540000     -35.67380000     -70.99840000
H      -48.12210000     -36.42570000     -70.40630000
H      -49.61460000     -36.01170000     -71.02410000
S      -44.85520000     -33.45070000     -67.55340000
S      -48.13260000     -35.81940000     -72.78230000
C      -44.05240000     -32.88040000     -69.07470000
H      -44.83660000     -32.53170000     -69.73910000
H      -43.37840000     -32.08890000     -68.81890000
C      -46.31840000     -35.54110000     -72.94700000
H      -46.22880000     -35.32030000     -74.02330000
H      -45.65480000     -36.43450000     -72.84940000
C      -45.78930000     -34.33170000     -72.14360000
H      -46.61010000     -33.67550000     -71.89460000
H      -45.31100000     -34.69890000     -71.25900000
C      -43.28540000     -34.04310000     -69.83560000
H      -44.03210000     -34.81440000     -70.13340000
H      -42.50130000     -34.57760000     -69.31060000
C      -42.70390000     -33.38910000     -71.16840000
C      -41.47950000     -32.75590000     -71.20610000
C      -43.46140000     -33.19350000     -72.41010000
H      -40.76770000     -32.76280000     -70.41010000
C      -42.67640000     -32.40050000     -73.34390000
C      -44.81370000     -33.54380000     -72.87320000
C      -45.04810000     -33.01460000     -74.13500000
S      -41.13190000     -31.92070000     -72.76590000
S      -43.56740000     -32.27200000     -74.85500000
H      -45.95230000     -32.98660000     -74.69100000
