40
Properties=species:S:1:pos:R:3 #=T CELL(abcABC):=T 1.889726e+02=T 90.00000=T Traj:=T positionsangstrom=T Step:=T 0=T Bead:=T pbc="F F F"
C      -41.67010000     -33.16210000     -69.31250000
C      -42.44330000     -32.05120000     -69.57670000
C      -42.47440000     -31.58390000     -70.89840000
C      -41.80070000     -32.21550000     -71.96580000
C      -41.18730000     -33.47570000     -71.65540000
C      -41.18420000     -33.88360000     -70.35660000
H      -41.50600000     -33.43410000     -68.27470000
H      -43.10420000     -30.75300000     -71.09050000
H      -40.82080000     -34.10010000     -72.42570000
H      -40.78020000     -34.84450000     -70.17540000
C      -41.89760000     -31.63140000     -73.31090000
H      -41.00310000     -31.61850000     -73.94050000
H      -42.28240000     -30.62770000     -73.39390000
C      -43.27580000     -31.42950000     -68.53110000
H      -42.62570000     -31.04980000     -67.70860000
H      -43.88090000     -30.64750000     -68.91980000
S      -43.11820000     -32.72380000     -74.43280000
S      -44.32160000     -32.77230000     -67.85770000
C      -44.80560000     -32.74400000     -73.69340000
H      -44.73870000     -31.89550000     -73.00180000
H      -45.63720000     -32.50710000     -74.44360000
C      -45.58630000     -32.89400000     -69.21320000
H      -45.27290000     -32.24370000     -70.11220000
H      -46.52580000     -32.53720000     -68.80790000
C      -45.80330000     -34.41460000     -69.65640000
H      -45.07160000     -34.59290000     -70.47810000
H      -45.73370000     -35.17260000     -68.81610000
C      -45.17090000     -34.03630000     -73.00620000
H      -44.63230000     -33.99140000     -72.04300000
H      -44.92820000     -34.85410000     -73.66230000
C      -46.67320000     -34.12260000     -72.81310000
C      -47.52160000     -34.16520000     -73.89260000
C      -47.49240000     -34.30810000     -71.61610000
H      -47.17870000     -34.23970000     -74.95160000
C      -48.89550000     -34.35200000     -71.82260000
C      -47.18420000     -34.47000000     -70.21620000
C      -48.29700000     -34.69900000     -69.40160000
S      -49.24210000     -34.12540000     -73.51040000
S      -49.78020000     -34.59010000     -70.39970000
H      -48.27630000     -34.64050000     -68.28330000
