40
Properties=species:S:1:pos:R:3 #=T CELL(abcABC):=T 1.889726e+02=T 90.00000=T Traj:=T positionsangstrom=T Step:=T 0=T Bead:=T pbc="F F F"
C      -48.94260000     -33.14370000     -71.49940000
C      -48.41730000     -34.28500000     -70.86280000
C      -47.68870000     -34.14640000     -69.64950000
C      -47.68130000     -32.89490000     -69.03160000
C      -48.37270000     -31.78930000     -69.60390000
C      -48.94640000     -31.93410000     -70.87370000
H      -49.47570000     -33.30920000     -72.41800000
H      -47.13280000     -34.97620000     -69.21590000
H      -48.60610000     -30.87650000     -69.05480000
H      -49.44950000     -31.11960000     -71.33720000
C      -47.12700000     -32.75470000     -67.56170000
H      -47.64110000     -33.38670000     -66.84270000
H      -47.32500000     -31.76540000     -67.17700000
C      -48.59540000     -35.61130000     -71.55020000
H      -48.18910000     -36.36900000     -70.94750000
H      -49.72780000     -35.81040000     -71.60790000
S      -45.38320000     -33.17600000     -67.35320000
S      -47.87720000     -35.74330000     -73.27570000
C      -44.57060000     -32.58300000     -68.86780000
H      -45.13670000     -31.66350000     -69.26980000
H      -43.61220000     -32.18140000     -68.60410000
C      -46.09760000     -35.20420000     -72.95670000
H      -45.55740000     -35.52520000     -73.89210000
H      -45.64020000     -35.74680000     -72.04620000
C      -45.86950000     -33.71840000     -72.94510000
H      -46.35660000     -33.33940000     -73.85260000
H      -46.25080000     -33.17150000     -72.13330000
C      -44.34260000     -33.72270000     -69.91050000
H      -45.30930000     -33.84240000     -70.46670000
H      -44.02630000     -34.64580000     -69.44090000
C      -43.25530000     -33.22850000     -70.81310000
C      -42.04780000     -32.78560000     -70.41220000
C      -43.32990000     -33.10420000     -72.27580000
H      -41.54430000     -32.77960000     -69.38140000
C      -42.17440000     -32.76370000     -72.90600000
C      -44.42900000     -33.37680000     -73.19630000
C      -44.10570000     -33.11200000     -74.49510000
S      -40.98880000     -32.21810000     -71.71580000
S      -42.42850000     -32.57330000     -74.66010000
H      -44.62480000     -32.98610000     -75.45770000
