40
Properties=species:S:1:pos:R:3 #=T CELL(abcABC):=T 1.889726e+02=T 90.00000=T Traj:=T positionsangstrom=T Step:=T 0=T Bead:=T pbc="F F F"
C      -44.58150000     -37.57600000     -70.02790000
C      -45.13470000     -36.40810000     -69.41070000
C      -46.31660000     -35.80140000     -69.91410000
C      -46.99390000     -36.48390000     -70.97070000
C      -46.55170000     -37.73520000     -71.43160000
C      -45.34370000     -38.29700000     -70.95270000
H      -43.64800000     -37.96200000     -69.61100000
H      -46.49310000     -34.86870000     -69.48170000
H      -47.13200000     -38.31480000     -72.11510000
H      -45.01480000     -39.17390000     -71.48540000
C      -48.32510000     -35.90230000     -71.38670000
H      -48.54620000     -35.17930000     -70.50590000
H      -49.06090000     -36.69770000     -71.29260000
C      -44.26620000     -35.66240000     -68.40790000
H      -44.74340000     -34.82470000     -68.03250000
H      -44.06560000     -36.23150000     -67.50150000
S      -48.45290000     -34.97760000     -72.99330000
S      -42.78960000     -35.03100000     -69.25070000
C      -46.93150000     -33.84690000     -72.82970000
H      -46.01460000     -34.47270000     -72.64160000
H      -46.72870000     -33.41580000     -73.79410000
C      -43.55910000     -33.79600000     -70.32200000
H      -44.27470000     -34.32380000     -71.04090000
H      -42.81800000     -33.40180000     -70.96780000
C      -44.31650000     -32.61540000     -69.69490000
H      -45.31910000     -32.74020000     -69.42340000
H      -43.86670000     -32.46610000     -68.69580000
C      -47.14050000     -32.65110000     -71.81770000
H      -46.86870000     -32.90330000     -70.74020000
H      -48.14930000     -32.23710000     -71.96820000
C      -46.17510000     -31.49360000     -72.20990000
C      -46.58210000     -30.74070000     -73.29600000
C      -44.97300000     -31.00760000     -71.59740000
H      -47.50210000     -30.87190000     -73.70270000
C      -44.42780000     -29.96490000     -72.43070000
C      -44.14040000     -31.34430000     -70.48390000
C      -43.10290000     -30.47730000     -70.37560000
S      -45.45020000     -29.54530000     -73.79220000
S      -43.06610000     -29.26060000     -71.67760000
H      -42.31900000     -30.40140000     -69.64560000
