40
Properties=species:S:1:pos:R:3 #=T CELL(abcABC):=T 1.889726e+02=T 90.00000=T Traj:=T positionsangstrom=T Step:=T 0=T Bead:=T pbc="F F F"
C      -49.12690000     -33.10420000     -71.06020000
C      -48.46750000     -34.23550000     -70.55980000
C      -47.56540000     -33.93880000     -69.50610000
C      -47.44670000     -32.74760000     -68.81990000
C      -48.16340000     -31.63320000     -69.32390000
C      -48.93340000     -31.78580000     -70.49870000
H      -49.79240000     -33.20550000     -71.99020000
H      -47.09560000     -34.81360000     -69.03740000
H      -48.16200000     -30.68940000     -68.70850000
H      -49.44700000     -30.98320000     -70.99800000
C      -46.56980000     -32.62020000     -67.62380000
H      -47.12500000     -32.98620000     -66.73470000
H      -46.26220000     -31.61350000     -67.37680000
C      -48.63700000     -35.59440000     -71.01740000
H      -48.02340000     -36.29010000     -70.44210000
H      -49.70170000     -35.86260000     -71.03300000
S      -44.95590000     -33.58640000     -67.67850000
S      -48.14300000     -35.89920000     -72.80050000
C      -44.17190000     -32.81260000     -69.14690000
H      -44.98500000     -32.54110000     -69.92670000
H      -43.68570000     -31.85400000     -68.87800000
C      -46.27930000     -35.54520000     -72.76310000
H      -46.00840000     -35.62480000     -73.80200000
H      -45.78060000     -36.27500000     -72.15110000
C      -45.85390000     -34.13670000     -72.20720000
H      -46.73290000     -33.45170000     -72.11100000
H      -45.58110000     -34.28680000     -71.16880000
C      -43.08570000     -33.80520000     -69.70740000
H      -43.54430000     -34.78450000     -69.79740000
H      -42.30470000     -33.82440000     -68.99440000
C      -42.66010000     -33.21060000     -71.08660000
C      -41.43540000     -32.59290000     -71.14920000
C      -43.44590000     -33.11170000     -72.27220000
H      -40.79840000     -32.31010000     -70.29690000
C      -42.59060000     -32.51920000     -73.25800000
C      -44.72490000     -33.48320000     -72.85160000
C      -44.83150000     -33.11870000     -74.15560000
S      -41.03100000     -32.00750000     -72.80150000
S      -43.45310000     -32.23530000     -74.77830000
H      -45.66370000     -33.47580000     -74.80510000
