40
Properties=species:S:1:pos:R:3 #=T CELL(abcABC):=T 1.889726e+02=T 90.00000=T Traj:=T positionsangstrom=T Step:=T 0=T Bead:=T pbc="F F F"
C      -48.02980000     -35.57970000     -72.34910000
C      -47.62910000     -34.74600000     -73.43190000
C      -47.89280000     -33.36420000     -73.25920000
C      -48.52540000     -32.84640000     -72.19180000
C      -48.95220000     -33.68550000     -71.13840000
C      -48.78320000     -35.03390000     -71.27600000
H      -47.95930000     -36.65210000     -72.37760000
H      -47.49430000     -32.65980000     -74.01750000
H      -49.34720000     -33.32830000     -70.14580000
H      -49.01790000     -35.72440000     -70.43970000
C      -48.80190000     -31.34640000     -72.05580000
H      -49.33920000     -31.23580000     -71.09470000
H      -49.56510000     -31.10990000     -72.83600000
C      -46.86110000     -35.31430000     -74.60010000
H      -47.13160000     -36.32000000     -74.76350000
H      -47.12960000     -34.70030000     -75.54650000
S      -47.28480000     -30.33680000     -72.29720000
S      -44.99710000     -35.24070000     -74.57880000
C      -46.37930000     -30.85240000     -70.81130000
H      -45.76870000     -30.04160000     -70.45540000
H      -47.08320000     -31.18850000     -70.08650000
C      -44.41140000     -35.19720000     -72.74020000
H      -44.01960000     -36.19980000     -72.47190000
H      -45.20430000     -35.00510000     -72.09270000
C      -43.34680000     -34.09040000     -72.63390000
H      -42.50510000     -34.38840000     -73.29420000
H      -43.65340000     -33.15440000     -73.05160000
C      -45.51670000     -32.04330000     -71.06340000
H      -45.06200000     -32.03860000     -72.05910000
H      -46.03020000     -32.92630000     -70.99370000
C      -44.44920000     -32.16950000     -70.00010000
C      -44.59820000     -31.72550000     -68.68650000
C      -43.35300000     -33.15720000     -70.12220000
H      -45.39900000     -31.01620000     -68.39000000
C      -42.71900000     -33.36060000     -68.88270000
C      -42.84920000     -34.01870000     -71.13150000
C      -41.81660000     -34.81680000     -70.72340000
S      -43.38280000     -32.36850000     -67.59240000
S      -41.50320000     -34.58220000     -68.95520000
H      -41.16220000     -35.41670000     -71.36370000
