40
Properties=species:S:1:pos:R:3 #=T CELL(abcABC):=T 1.889726e+02=T 90.00000=T Traj:=T positionsangstrom=T Step:=T 0=T Bead:=T pbc="F F F"
C      -48.54960000     -33.06430000     -72.36780000
C      -48.31850000     -33.98370000     -71.36020000
C      -48.17850000     -33.56540000     -70.01500000
C      -48.25000000     -32.15410000     -69.78350000
C      -48.50780000     -31.22210000     -70.78900000
C      -48.71710000     -31.67210000     -72.08130000
H      -48.75710000     -33.41080000     -73.34290000
H      -47.99200000     -34.28730000     -69.18660000
H      -48.50010000     -30.14790000     -70.51180000
H      -49.02220000     -30.96250000     -72.82150000
C      -47.98340000     -31.58390000     -68.38770000
H      -48.82840000     -31.69460000     -67.72160000
H      -47.81810000     -30.48020000     -68.59490000
C      -48.24310000     -35.50950000     -71.70170000
H      -47.79490000     -36.09020000     -70.88700000
H      -49.32570000     -35.86770000     -71.78650000
S      -46.53260000     -32.37330000     -67.46140000
S      -47.65450000     -35.95530000     -73.37350000
C      -44.98120000     -31.98550000     -68.55430000
H      -44.95870000     -30.93190000     -68.63740000
H      -44.15220000     -32.35380000     -67.92400000
C      -45.87660000     -35.72440000     -73.09060000
H      -45.36940000     -36.25090000     -73.89630000
H      -45.55370000     -36.20170000     -72.16460000
C      -45.45640000     -34.22490000     -73.11050000
H      -45.87780000     -33.74500000     -73.99320000
H      -46.01950000     -33.73800000     -72.25910000
C      -44.93220000     -32.69460000     -69.91300000
H      -45.71730000     -32.29450000     -70.61380000
H      -45.29990000     -33.70140000     -69.75770000
C      -43.57930000     -32.78760000     -70.60320000
C      -42.38370000     -32.46590000     -69.94350000
C      -43.24490000     -33.30850000     -71.93520000
H      -42.25400000     -32.31910000     -68.86270000
C      -41.85230000     -33.24010000     -72.22390000
C      -43.97080000     -33.97100000     -73.02740000
C      -43.14370000     -34.31200000     -74.05600000
S      -40.91550000     -32.64560000     -70.93450000
S      -41.47490000     -33.87240000     -73.76360000
H      -43.46370000     -34.91720000     -74.91270000
