40
Properties=species:S:1:pos:R:3 #=T CELL(abcABC):=T 1.889726e+02=T 90.00000=T Traj:=T positionsangstrom=T Step:=T 0=T Bead:=T pbc="F F F"
C      -48.91530000     -33.14920000     -72.39300000
C      -48.45960000     -34.02900000     -71.39720000
C      -48.16840000     -33.62550000     -70.12820000
C      -48.19030000     -32.24910000     -69.81110000
C      -48.54660000     -31.27780000     -70.81770000
C      -48.95250000     -31.75470000     -72.07960000
H      -49.15260000     -33.48970000     -73.36920000
H      -47.79720000     -34.26830000     -69.32670000
H      -48.37730000     -30.26340000     -70.58280000
H      -49.23710000     -31.03790000     -72.90520000
C      -47.80490000     -31.75400000     -68.46470000
H      -48.63990000     -31.89170000     -67.66950000
H      -47.56780000     -30.69970000     -68.54310000
C      -48.43340000     -35.53240000     -71.53280000
H      -47.91580000     -35.97200000     -70.67000000
H      -49.36350000     -35.99820000     -71.65400000
S      -46.42310000     -32.57400000     -67.66520000
S      -47.55890000     -36.02540000     -73.05760000
C      -44.96620000     -32.09480000     -68.63950000
H      -44.97100000     -31.00570000     -68.77830000
H      -44.08000000     -32.25320000     -67.97040000
C      -45.77590000     -35.48330000     -72.86770000
H      -45.32260000     -35.86310000     -73.81430000
H      -45.23070000     -35.96910000     -71.93680000
C      -45.56990000     -34.01220000     -72.95710000
H      -46.08370000     -33.62930000     -73.79970000
H      -45.99390000     -33.43860000     -72.08320000
C      -44.80680000     -32.86670000     -69.91930000
H      -45.59220000     -32.46900000     -70.64310000
H      -45.05320000     -33.90860000     -69.80450000
C      -43.44830000     -32.79440000     -70.57130000
C      -42.28440000     -32.38550000     -69.99070000
C      -43.22130000     -33.28600000     -71.90720000
H      -42.17230000     -31.92880000     -68.94610000
C      -41.86410000     -33.21360000     -72.26600000
C      -44.03030000     -33.75210000     -72.99770000
C      -43.31230000     -33.97840000     -74.11810000
S      -40.83160000     -32.63440000     -70.94920000
S      -41.56190000     -33.72870000     -73.90100000
H      -43.65240000     -34.37720000     -75.11450000
