40
Properties=species:S:1:pos:R:3 #=T CELL(abcABC):=T 1.889726e+02=T 90.00000=T Traj:=T positionsangstrom=T Step:=T 0=T Bead:=T pbc="F F F"
C      -49.14730000     -33.15930000     -72.03350000
C      -48.57970000     -34.15780000     -71.19230000
C      -47.99230000     -33.80470000     -69.92420000
C      -47.90170000     -32.42220000     -69.60020000
C      -48.49990000     -31.47160000     -70.43790000
C      -49.11550000     -31.81230000     -71.61680000
H      -49.65760000     -33.41740000     -72.92000000
H      -47.52170000     -34.53180000     -69.31530000
H      -48.50930000     -30.40750000     -70.08610000
H      -49.60580000     -31.04020000     -72.14020000
C      -47.29050000     -31.95020000     -68.28170000
H      -48.08330000     -31.75870000     -67.43230000
H      -46.79590000     -30.96660000     -68.34620000
C      -48.60990000     -35.67340000     -71.52590000
H      -48.23500000     -36.17020000     -70.66940000
H      -49.62520000     -35.96790000     -71.66020000
S      -46.18440000     -33.19080000     -67.49270000
S      -47.60550000     -36.03520000     -73.08030000
C      -44.51070000     -32.97010000     -68.29280000
H      -44.09710000     -31.97110000     -68.11950000
H      -43.80830000     -33.66740000     -67.80840000
C      -45.89340000     -35.47650000     -72.81680000
H      -45.21160000     -36.12200000     -73.33200000
H      -45.69090000     -35.70600000     -71.73320000
C      -45.62110000     -33.94220000     -73.06880000
H      -46.20260000     -33.48360000     -73.89160000
H      -45.97630000     -33.44490000     -72.11390000
C      -44.64800000     -33.25310000     -69.82370000
H      -45.50500000     -32.62920000     -70.10360000
H      -45.00850000     -34.21060000     -69.91250000
C      -43.39050000     -32.88740000     -70.67950000
C      -42.21820000     -32.43610000     -70.08300000
C      -43.28140000     -32.97590000     -72.09040000
H      -42.06780000     -32.18040000     -69.08310000
C      -41.97570000     -32.75490000     -72.56240000
C      -44.13780000     -33.54090000     -73.14030000
C      -43.48940000     -33.58640000     -74.32140000
S      -40.91970000     -32.27860000     -71.27970000
S      -41.85230000     -32.97240000     -74.34870000
H      -44.00300000     -33.88140000     -75.24110000
