40
Properties=species:S:1:pos:R:3 #=T CELL(abcABC):=T 1.889726e+02=T 90.00000=T Traj:=T positionsangstrom=T Step:=T 0=T Bead:=T pbc="F F F"
C      -49.21120000     -33.21410000     -72.18770000
C      -48.61150000     -34.12190000     -71.27290000
C      -48.09300000     -33.64230000     -70.05830000
C      -48.18130000     -32.28070000     -69.79020000
C      -48.55820000     -31.30260000     -70.75350000
C      -49.09660000     -31.85170000     -71.96260000
H      -49.61740000     -33.61030000     -73.11400000
H      -47.78750000     -34.31460000     -69.27920000
H      -48.61280000     -30.28260000     -70.42540000
H      -49.47220000     -31.13420000     -72.77900000
C      -47.64340000     -31.63340000     -68.55610000
H      -48.38140000     -31.40990000     -67.79700000
H      -47.14830000     -30.72040000     -68.69020000
C      -48.61020000     -35.59650000     -71.68080000
H      -48.32460000     -36.13230000     -70.73480000
H      -49.62050000     -35.97620000     -71.91980000
S      -46.34020000     -32.66760000     -67.63660000
S      -47.40440000     -36.12810000     -72.94870000
C      -44.75100000     -32.22120000     -68.47610000
H      -44.58710000     -31.12500000     -68.56440000
H      -43.94540000     -32.60600000     -67.88940000
C      -45.80740000     -35.37880000     -72.54190000
H      -45.07100000     -36.03980000     -72.87390000
H      -45.74920000     -35.27670000     -71.49250000
C      -45.56630000     -34.01510000     -73.14830000
H      -45.93290000     -33.97080000     -74.21510000
H      -46.10570000     -33.29430000     -72.56800000
C      -44.80460000     -32.85920000     -69.88150000
H      -45.45010000     -32.33410000     -70.48520000
H      -45.10220000     -33.92790000     -69.76160000
C      -43.44000000     -32.86180000     -70.54320000
C      -42.21100000     -32.56940000     -69.98600000
C      -43.21710000     -33.22550000     -71.97460000
H      -42.11020000     -32.06420000     -68.96900000
C      -41.87090000     -33.12530000     -72.36790000
C      -44.09150000     -33.63490000     -73.11470000
C      -43.37090000     -33.83240000     -74.24230000
S      -40.83660000     -32.60450000     -71.07600000
S      -41.62980000     -33.52610000     -74.05730000
H      -43.82300000     -33.86800000     -75.23680000
