40
Properties=species:S:1:pos:R:3 #=T CELL(abcABC):=T 1.889726e+02=T 90.00000=T Traj:=T positionsangstrom=T Step:=T 0=T Bead:=T pbc="F F F"
C      -48.19030000     -35.47370000     -72.40040000
C      -47.61900000     -34.71150000     -73.44250000
C      -47.75640000     -33.33210000     -73.34840000
C      -48.37930000     -32.74940000     -72.23540000
C      -48.94120000     -33.47900000     -71.23840000
C      -48.88120000     -34.89220000     -71.35360000
H      -48.06560000     -36.54620000     -72.31530000
H      -47.45280000     -32.70990000     -74.17440000
H      -49.58620000     -33.13230000     -70.40320000
H      -49.43350000     -35.46670000     -70.62450000
C      -48.56880000     -31.19380000     -72.03970000
H      -48.99340000     -31.02610000     -71.00090000
H      -49.19300000     -30.81190000     -72.84840000
C      -46.98600000     -35.28760000     -74.64800000
H      -47.26310000     -36.37010000     -74.83850000
H      -47.28130000     -34.77810000     -75.50140000
S      -47.13030000     -30.12220000     -72.29310000
S      -45.11160000     -35.19850000     -74.63010000
C      -46.08300000     -30.51420000     -70.82090000
H      -45.22310000     -29.80560000     -70.95840000
H      -46.65050000     -30.17410000     -69.92700000
C      -44.64380000     -35.16100000     -72.91740000
H      -44.17210000     -36.12630000     -72.64580000
H      -45.53870000     -34.90660000     -72.29410000
C      -43.49930000     -34.14870000     -72.56620000
H      -42.60470000     -34.29230000     -73.26710000
H      -43.82320000     -33.16360000     -72.81810000
C      -45.57900000     -31.94650000     -70.85660000
H      -45.06950000     -32.03350000     -71.87780000
H      -46.47300000     -32.60200000     -70.96580000
C      -44.62910000     -32.44190000     -69.78430000
C      -44.67540000     -32.03800000     -68.46740000
C      -43.67700000     -33.53960000     -69.98480000
H      -45.24540000     -31.14810000     -68.16950000
C      -42.78410000     -33.65510000     -68.84860000
C      -43.02670000     -34.26320000     -71.09310000
C      -41.83100000     -34.83420000     -70.75110000
S      -43.25100000     -32.60690000     -67.51600000
S      -41.34590000     -34.56380000     -69.07970000
H      -41.31170000     -35.44400000     -71.40260000
