40
Properties=species:S:1:pos:R:3 #=T CELL(abcABC):=T 1.889726e+02=T 90.00000=T Traj:=T positionsangstrom=T Step:=T 0=T Bead:=T pbc="F F F"
C      -48.09120000     -33.71260000     -69.22160000
C      -47.20710000     -34.88760000     -69.12570000
C      -46.00250000     -34.84090000     -68.54880000
C      -45.53560000     -33.53690000     -68.18670000
C      -46.36310000     -32.39650000     -68.29230000
C      -47.69920000     -32.52020000     -68.72250000
H      -49.13350000     -33.81140000     -69.70190000
H      -45.51270000     -35.68500000     -68.17790000
H      -46.00290000     -31.39460000     -67.93420000
H      -48.44620000     -31.66190000     -68.75840000
C      -44.18340000     -33.15120000     -67.63660000
H      -44.14870000     -33.44560000     -66.60130000
H      -44.15940000     -32.02650000     -67.80010000
C      -47.69040000     -36.28400000     -69.53250000
H      -47.46640000     -36.95480000     -68.66700000
H      -48.75170000     -36.35430000     -69.78240000
S      -42.84150000     -33.96970000     -68.75380000
S      -46.71650000     -37.00950000     -70.90490000
C      -43.37510000     -32.84430000     -70.18580000
H      -44.46040000     -33.00780000     -70.29920000
H      -43.21210000     -31.78220000     -69.88810000
C      -46.82010000     -35.67710000     -72.30650000
H      -47.76760000     -35.19850000     -72.11950000
H      -46.94760000     -36.20230000     -73.19790000
C      -45.61990000     -34.76000000     -72.25240000
H      -45.55190000     -34.32770000     -71.18680000
H      -44.66730000     -35.19240000     -72.35160000
C      -42.70700000     -33.12100000     -71.45080000
H      -42.72520000     -34.20260000     -71.74900000
H      -41.71100000     -32.81430000     -71.29970000
C      -43.33280000     -32.28900000     -72.55800000
C      -42.60800000     -31.23910000     -73.16250000
C      -44.60140000     -32.53830000     -73.19270000
H      -41.63560000     -30.93710000     -72.77820000
C      -44.93790000     -31.47520000     -74.02940000
C      -45.70280000     -33.47650000     -73.12350000
C      -46.79560000     -33.11130000     -73.88550000
S      -43.55460000     -30.41200000     -74.41610000
S      -46.57410000     -31.51720000     -74.64240000
H      -47.66450000     -33.72180000     -74.00730000
