40
Properties=species:S:1:pos:R:3 #=T CELL(abcABC):=T 1.889726e+02=T 90.00000=T Traj:=T positionsangstrom=T Step:=T 0=T Bead:=T pbc="F F F"
C      -48.31300000     -35.31020000     -72.51570000
C      -47.72530000     -34.54080000     -73.53230000
C      -47.76840000     -33.13060000     -73.35220000
C      -48.25720000     -32.61080000     -72.15470000
C      -48.87590000     -33.38870000     -71.19110000
C      -48.88760000     -34.79880000     -71.36980000
H      -48.29410000     -36.41060000     -72.59040000
H      -47.33270000     -32.52160000     -74.08320000
H      -49.25920000     -32.97430000     -70.26030000
H      -49.44770000     -35.39640000     -70.73390000
C      -48.46830000     -31.07900000     -72.08410000
H      -48.92970000     -30.67670000     -71.23630000
H      -49.11080000     -30.68070000     -72.86350000
C      -47.06880000     -35.27680000     -74.68650000
H      -47.23520000     -36.37160000     -74.51150000
H      -47.42670000     -34.95600000     -75.60420000
S      -46.84870000     -30.04900000     -72.24430000
S      -45.24430000     -34.94020000     -74.57320000
C      -45.72820000     -30.67660000     -70.90660000
H      -44.76560000     -30.23520000     -71.04500000
H      -46.00730000     -30.30640000     -69.92150000
C      -44.81400000     -35.16470000     -72.75180000
H      -44.66520000     -36.22100000     -72.52590000
H      -45.66100000     -34.87780000     -72.12820000
C      -43.53380000     -34.32540000     -72.62820000
H      -42.78680000     -34.59050000     -73.33410000
H      -43.83990000     -33.30060000     -72.90540000
C      -45.68380000     -32.14270000     -70.76120000
H      -45.54880000     -32.72840000     -71.65270000
H      -46.65440000     -32.44170000     -70.27810000
C      -44.62210000     -32.55270000     -69.73220000
C      -44.68420000     -32.13610000     -68.42310000
C      -43.54850000     -33.42250000     -70.04870000
H      -45.39880000     -31.50460000     -67.92030000
C      -42.68120000     -33.58190000     -68.94830000
C      -43.02810000     -34.26370000     -71.21050000
C      -41.87910000     -34.86200000     -70.85440000
S      -43.41140000     -32.89350000     -67.42150000
S      -41.39090000     -34.72080000     -69.17790000
H      -41.39930000     -35.51730000     -71.45830000
