40
Properties=species:S:1:pos:R:3 #=T CELL(abcABC):=T 1.889726e+02=T 90.00000=T Traj:=T positionsangstrom=T Step:=T 0=T Bead:=T pbc="F F F"
C      -48.91460000     -32.87560000     -72.49860000
C      -48.56790000     -33.79600000     -71.50250000
C      -48.24410000     -33.31270000     -70.24120000
C      -48.34630000     -31.99530000     -69.93590000
C      -48.46540000     -31.05280000     -70.99730000
C      -48.77680000     -31.47240000     -72.25580000
H      -49.32750000     -33.24620000     -73.40120000
H      -48.09930000     -33.99540000     -69.41950000
H      -48.49130000     -29.96810000     -70.69260000
H      -48.98970000     -30.83530000     -73.17970000
C      -47.99950000     -31.45420000     -68.61380000
H      -48.76090000     -31.51810000     -67.85160000
H      -47.64740000     -30.46310000     -68.61810000
C      -48.43680000     -35.21770000     -71.86270000
H      -47.97950000     -35.79860000     -71.06490000
H      -49.41670000     -35.64250000     -71.92990000
S      -46.54520000     -32.44210000     -67.82250000
S      -47.74760000     -35.62290000     -73.47590000
C      -44.95490000     -31.96500000     -68.62650000
H      -44.69760000     -30.93560000     -68.43370000
H      -44.40420000     -32.66790000     -68.01830000
C      -45.93570000     -35.59070000     -73.11940000
H      -45.46710000     -36.02180000     -73.90460000
H      -45.85220000     -36.22660000     -72.27260000
C      -45.30570000     -34.26460000     -72.82080000
H      -45.62430000     -33.51650000     -73.52000000
H      -45.64480000     -33.86380000     -71.86260000
C      -44.90400000     -32.44440000     -70.06290000
H      -45.52640000     -31.78240000     -70.72140000
H      -45.36410000     -33.37610000     -70.12640000
C      -43.46280000     -32.67510000     -70.54070000
C      -42.32910000     -32.10830000     -70.02520000
C      -43.10710000     -33.59980000     -71.64670000
H      -42.33900000     -31.46470000     -69.23690000
C      -41.78960000     -33.53660000     -71.99880000
C      -43.82360000     -34.23530000     -72.73230000
C      -43.02200000     -34.84890000     -73.62840000
S      -40.85560000     -32.63420000     -70.83630000
S      -41.34150000     -34.61320000     -73.31040000
H      -43.27350000     -35.45920000     -74.43770000
