40
Properties=species:S:1:pos:R:3 #=T CELL(abcABC):=T 1.889726e+02=T 90.00000=T Traj:=T positionsangstrom=T Step:=T 0=T Bead:=T pbc="F F F"
C      -48.23440000     -33.83960000     -69.29140000
C      -47.47100000     -34.99470000     -69.16810000
C      -46.19580000     -34.88560000     -68.57890000
C      -45.65290000     -33.66880000     -68.16250000
C      -46.38410000     -32.50830000     -68.36900000
C      -47.65030000     -32.53710000     -68.94680000
H      -49.28260000     -33.85510000     -69.68720000
H      -45.50620000     -35.75370000     -68.41240000
H      -46.01220000     -31.57950000     -68.05290000
H      -48.09930000     -31.61280000     -69.07960000
C      -44.22600000     -33.53980000     -67.69560000
H      -44.01000000     -34.21410000     -66.88040000
H      -43.98500000     -32.57300000     -67.31650000
C      -48.03360000     -36.17520000     -69.89900000
H      -48.42300000     -36.92440000     -69.19550000
H      -48.89850000     -35.83040000     -70.48350000
S      -42.91440000     -33.90740000     -68.87700000
S      -46.90150000     -37.05550000     -71.00470000
C      -42.88960000     -32.47640000     -70.13250000
H      -43.87850000     -31.97420000     -70.06640000
H      -42.12230000     -31.82060000     -69.81950000
C      -46.68060000     -35.56440000     -72.26500000
H      -47.59740000     -35.03260000     -72.04650000
H      -46.62620000     -36.07370000     -73.19700000
C      -45.44370000     -34.65560000     -71.99120000
H      -45.63770000     -34.22250000     -71.07450000
H      -44.47040000     -35.15430000     -72.02420000
C      -42.54150000     -33.07770000     -71.52020000
H      -42.85090000     -34.12000000     -71.57440000
H      -41.40750000     -33.16390000     -71.56840000
C      -43.16110000     -32.16270000     -72.55220000
C      -42.63740000     -30.99850000     -73.04660000
C      -44.48750000     -32.42180000     -73.08230000
H      -41.56750000     -30.74030000     -72.98570000
C      -44.89080000     -31.46960000     -74.04040000
C      -45.49030000     -33.48530000     -72.99340000
C      -46.61940000     -33.25780000     -73.71030000
S      -43.62170000     -30.26160000     -74.20340000
S      -46.53340000     -31.74320000     -74.58810000
H      -47.49340000     -33.89250000     -73.86040000
