40
Properties=species:S:1:pos:R:3 #=T CELL(abcABC):=T 1.889726e+02=T 90.00000=T Traj:=T positionsangstrom=T Step:=T 0=T Bead:=T pbc="F F F"
C      -49.47740000     -32.78300000     -73.00900000
C      -48.98690000     -33.61870000     -72.01600000
C      -48.58870000     -33.05950000     -70.77030000
C      -48.57440000     -31.62360000     -70.60950000
C      -49.02770000     -30.77840000     -71.69650000
C      -49.49520000     -31.38400000     -72.87900000
H      -49.69640000     -33.19400000     -73.97850000
H      -48.25290000     -33.64550000     -69.96900000
H      -48.97550000     -29.65240000     -71.51330000
H      -49.98200000     -30.84970000     -73.68640000
C      -48.08200000     -31.00390000     -69.31550000
H      -48.93500000     -30.80760000     -68.60350000
H      -47.55500000     -30.08670000     -69.50910000
C      -48.88100000     -35.08890000     -72.18700000
H      -48.86040000     -35.54540000     -71.17270000
H      -49.72830000     -35.58380000     -72.61430000
S      -46.76580000     -32.06690000     -68.34780000
S      -47.35480000     -35.67760000     -73.15560000
C      -45.19440000     -31.54300000     -69.23480000
H      -45.13620000     -30.49460000     -69.58540000
H      -44.47790000     -31.72860000     -68.45320000
C      -45.92270000     -35.27730000     -72.13850000
H      -45.47330000     -36.27370000     -71.86090000
H      -46.21630000     -34.74710000     -71.14990000
C      -44.88630000     -34.55080000     -72.98910000
H      -44.89340000     -35.13410000     -73.90840000
H      -45.13570000     -33.49350000     -73.13530000
C      -44.88460000     -32.48980000     -70.37830000
H      -45.47810000     -32.15950000     -71.21010000
H      -45.24470000     -33.48580000     -70.15160000
C      -43.39970000     -32.64950000     -70.70380000
C      -42.44020000     -32.07990000     -69.93320000
C      -42.85040000     -33.74300000     -71.51170000
H      -42.53230000     -31.33790000     -69.15820000
C      -41.45300000     -33.82990000     -71.42970000
C      -43.46820000     -34.63260000     -72.49640000
C      -42.49490000     -35.50740000     -73.05720000
S      -40.79770000     -32.71640000     -70.27730000
S      -40.85290000     -35.22040000     -72.30240000
H      -42.68640000     -36.38790000     -73.68400000
