40
Properties=species:S:1:pos:R:3 #=T CELL(abcABC):=T 1.889726e+02=T 90.00000=T Traj:=T positionsangstrom=T Step:=T 0=T Bead:=T pbc="F F F"
C      -48.13090000     -34.47650000     -69.32030000
C      -47.16610000     -35.42430000     -69.56480000
C      -45.91070000     -35.28690000     -68.93420000
C      -45.59950000     -34.20710000     -68.05630000
C      -46.55950000     -33.19740000     -67.93090000
C      -47.85630000     -33.37720000     -68.46550000
H      -49.17600000     -34.67110000     -69.64640000
H      -45.29470000     -36.19770000     -69.04470000
H      -46.39840000     -32.23710000     -67.43350000
H      -48.71060000     -32.83950000     -68.18760000
C      -44.26520000     -34.11880000     -67.40290000
H      -43.91810000     -35.02520000     -66.80430000
H      -44.27460000     -33.19950000     -66.71450000
C      -47.51860000     -36.83290000     -70.16420000
H      -47.10950000     -37.65520000     -69.46690000
H      -48.55540000     -37.02100000     -70.15370000
S      -42.82280000     -33.74350000     -68.53420000
S      -46.75310000     -37.03110000     -71.78780000
C      -43.56380000     -32.61860000     -69.76610000
H      -44.64400000     -32.71900000     -69.88940000
H      -43.56190000     -31.57200000     -69.39200000
C      -46.85020000     -35.31370000     -72.51150000
H      -47.74350000     -34.80790000     -72.10830000
H      -47.07740000     -35.47370000     -73.54860000
C      -45.50930000     -34.56920000     -72.39470000
H      -45.38780000     -34.44720000     -71.36860000
H      -44.78050000     -35.30700000     -72.83500000
C      -42.86010000     -32.69110000     -71.07480000
H      -42.85350000     -33.75600000     -71.34050000
H      -41.84790000     -32.47190000     -70.98820000
C      -43.37820000     -31.78550000     -72.27590000
C      -42.91720000     -30.53450000     -72.50450000
C      -44.47620000     -32.26320000     -73.11860000
H      -42.03890000     -30.13190000     -72.03830000
C      -44.84220000     -31.17090000     -73.92760000
C      -45.50090000     -33.26360000     -73.19450000
C      -46.42630000     -32.93500000     -74.12030000
S      -43.84400000     -29.77690000     -73.78370000
S      -46.22430000     -31.39390000     -74.89580000
H      -47.24920000     -33.55300000     -74.46870000
