40
Properties=species:S:1:pos:R:3 #=T CELL(abcABC):=T 1.889726e+02=T 90.00000=T Traj:=T positionsangstrom=T Step:=T 0=T Bead:=T pbc="F F F"
C      -48.24690000     -35.42980000     -69.54750000
C      -47.02610000     -36.06690000     -69.87620000
C      -45.85110000     -35.68230000     -69.21180000
C      -45.86150000     -34.64850000     -68.25800000
C      -47.05960000     -33.97600000     -67.98780000
C      -48.20330000     -34.45950000     -68.58760000
H      -49.21780000     -35.69690000     -70.03210000
H      -44.86310000     -36.16240000     -69.39710000
H      -47.07530000     -33.15650000     -67.24660000
H      -49.08660000     -33.86940000     -68.38640000
C      -44.57360000     -34.47690000     -67.53140000
H      -44.33430000     -35.31720000     -66.94470000
H      -44.71440000     -33.58610000     -66.83460000
C      -47.06810000     -37.12240000     -70.93650000
H      -46.85360000     -38.06040000     -70.43480000
H      -48.08210000     -37.03620000     -71.30370000
S      -43.08700000     -34.17170000     -68.64830000
S      -45.85120000     -36.90300000     -72.32520000
C      -43.63480000     -32.56000000     -69.58870000
H      -44.76290000     -32.49980000     -69.62510000
H      -43.37470000     -31.67990000     -69.00160000
C      -46.18110000     -35.27730000     -73.16210000
H      -47.21270000     -34.88390000     -73.14070000
H      -45.87670000     -35.47540000     -74.19810000
C      -45.34660000     -34.21530000     -72.38500000
H      -45.66230000     -34.08840000     -71.32240000
H      -44.21110000     -34.46130000     -72.42030000
C      -42.90000000     -32.54710000     -70.92470000
H      -42.82290000     -33.53750000     -71.45100000
H      -41.86930000     -32.19710000     -70.67830000
C      -43.42960000     -31.60740000     -72.07800000
C      -42.91600000     -30.33060000     -72.22740000
C      -44.63140000     -31.79890000     -72.82780000
H      -42.07530000     -29.93240000     -71.63670000
C      -45.03540000     -30.55900000     -73.43080000
C      -45.53510000     -32.87030000     -73.02950000
C      -46.61050000     -32.48190000     -73.80240000
S      -43.90230000     -29.27310000     -73.32310000
S      -46.54650000     -30.77840000     -74.36640000
H      -47.42600000     -33.15750000     -74.21000000
