40
Properties=species:S:1:pos:R:3 #=T CELL(abcABC):=T 1.889726e+02=T 90.00000=T Traj:=T positionsangstrom=T Step:=T 0=T Bead:=T pbc="F F F"
C      -48.26070000     -35.08140000     -69.59480000
C      -47.13690000     -35.93100000     -69.94020000
C      -45.88470000     -35.61040000     -69.33430000
C      -45.79580000     -34.70610000     -68.32620000
C      -47.00660000     -34.05970000     -67.83460000
C      -48.22490000     -34.19190000     -68.53010000
H      -49.13580000     -35.15080000     -70.37990000
H      -44.91050000     -36.05160000     -69.62900000
H      -46.91940000     -33.28900000     -67.05740000
H      -49.06770000     -33.60550000     -68.17980000
C      -44.47410000     -34.35760000     -67.60780000
H      -44.09130000     -35.22960000     -67.00640000
H      -44.60670000     -33.51600000     -66.95040000
C      -47.22900000     -37.01180000     -70.98740000
H      -47.21010000     -38.01650000     -70.54340000
H      -48.17300000     -37.05210000     -71.57320000
S      -43.00080000     -33.97800000     -68.62230000
S      -45.80210000     -37.05760000     -72.21130000
C      -43.73840000     -32.84570000     -69.82040000
H      -44.59090000     -33.30260000     -70.11330000
H      -43.89970000     -31.84960000     -69.33310000
C      -46.21470000     -35.41180000     -72.99650000
H      -47.29910000     -35.33900000     -72.97930000
H      -45.91800000     -35.57400000     -74.04550000
C      -45.55830000     -34.23020000     -72.27530000
H      -45.97300000     -34.38540000     -71.34810000
H      -44.51480000     -34.43100000     -71.99570000
C      -42.88120000     -32.65250000     -71.02240000
H      -42.68980000     -33.61410000     -71.43500000
H      -41.90410000     -32.42020000     -70.67980000
C      -43.47360000     -31.63340000     -72.04700000
C      -43.00330000     -30.36100000     -72.19580000
C      -44.72530000     -31.76600000     -72.80130000
H      -42.00930000     -30.07180000     -71.71700000
C      -45.05400000     -30.61670000     -73.40050000
C      -45.65540000     -32.83710000     -72.92020000
C      -46.69190000     -32.40920000     -73.73790000
S      -43.77050000     -29.39630000     -73.42000000
S      -46.44910000     -30.80620000     -74.38950000
H      -47.49750000     -33.06960000     -74.18340000
