40
Properties=species:S:1:pos:R:3 #=T CELL(abcABC):=T 1.889726e+02=T 90.00000=T Traj:=T positionsangstrom=T Step:=T 0=T Bead:=T pbc="F F F"
C      -48.81800000     -33.42760000     -73.30650000
C      -48.44960000     -33.02310000     -72.02570000
C      -47.81100000     -31.84330000     -71.80950000
C      -47.45520000     -31.03620000     -72.84710000
C      -47.81720000     -31.38560000     -74.16160000
C      -48.48040000     -32.57080000     -74.34710000
H      -49.33580000     -34.36760000     -73.49580000
H      -47.57670000     -31.49110000     -70.82740000
H      -47.51510000     -30.65980000     -74.93710000
H      -48.73640000     -32.81350000     -75.33170000
C      -46.74370000     -29.69650000     -72.53910000
H      -47.38350000     -28.85880000     -72.43050000
H      -45.96480000     -29.46280000     -73.32160000
C      -48.94430000     -33.89110000     -70.83710000
H      -48.50470000     -33.50850000     -69.84420000
H      -49.99490000     -33.90580000     -70.72990000
S      -45.87200000     -29.63960000     -70.81910000
S      -48.42620000     -35.65080000     -70.90510000
C      -44.81620000     -31.17030000     -71.11810000
H      -45.14820000     -31.67810000     -72.03060000
H      -43.82190000     -30.79800000     -71.37260000
C      -46.62190000     -35.65260000     -70.36960000
H      -46.38180000     -36.65990000     -70.17880000
H      -46.35680000     -35.08480000     -69.41670000
C      -45.75800000     -35.18430000     -71.54720000
H      -45.99060000     -35.73060000     -72.43740000
H      -45.98730000     -34.16650000     -71.85640000
C      -44.75660000     -32.20290000     -69.97020000
H      -45.61680000     -32.82010000     -70.02350000
H      -44.77370000     -31.74270000     -68.94020000
C      -43.45430000     -33.01020000     -70.09440000
C      -42.27420000     -32.41880000     -69.73480000
C      -43.34930000     -34.33790000     -70.68600000
H      -42.13740000     -31.41070000     -69.40700000
C      -42.01920000     -34.71870000     -70.58650000
C      -44.26380000     -35.34560000     -71.14860000
C      -43.49090000     -36.45690000     -71.44090000
S      -40.91240000     -33.46580000     -70.10030000
S      -41.73000000     -36.34210000     -71.27020000
H      -44.00070000     -37.39210000     -71.82210000
