40
Properties=species:S:1:pos:R:3 #=T CELL(abcABC):=T 1.889726e+02=T 90.00000=T Traj:=T positionsangstrom=T Step:=T 0=T Bead:=T pbc="F F F"
C      -48.22280000     -35.14310000     -69.39050000
C      -47.12990000     -35.97290000     -69.69780000
C      -45.90990000     -35.70320000     -69.16620000
C      -45.74650000     -34.66040000     -68.23460000
C      -46.77620000     -33.76070000     -67.93180000
C      -48.01540000     -33.95640000     -68.60810000
H      -49.23240000     -35.29700000     -69.88360000
H      -45.10010000     -36.30530000     -69.46230000
H      -46.65870000     -32.99280000     -67.19930000
H      -48.81370000     -33.23580000     -68.35580000
C      -44.53680000     -34.42910000     -67.44890000
H      -44.18290000     -35.39760000     -66.99450000
H      -44.69420000     -33.77740000     -66.62400000
C      -47.31340000     -36.91730000     -70.86420000
H      -47.32480000     -37.92910000     -70.41920000
H      -48.27010000     -36.81990000     -71.38830000
S      -43.06880000     -34.00200000     -68.55320000
S      -45.96530000     -36.93990000     -72.21020000
C      -43.70690000     -32.66810000     -69.79340000
H      -44.80310000     -32.82530000     -70.04360000
H      -43.50810000     -31.68090000     -69.26870000
C      -46.09640000     -35.33170000     -73.14660000
H      -47.09040000     -35.15630000     -73.53620000
H      -45.48410000     -35.45210000     -74.08810000
C      -45.68880000     -34.19250000     -72.27710000
H      -46.39040000     -34.02480000     -71.41380000
H      -44.68570000     -34.36570000     -71.95470000
C      -42.85660000     -32.74570000     -71.01060000
H      -42.72390000     -33.82960000     -71.32780000
H      -41.82010000     -32.33000000     -70.78050000
C      -43.37660000     -31.80390000     -72.14470000
C      -42.86660000     -30.53840000     -72.32670000
C      -44.63460000     -31.86650000     -72.94150000
H      -42.00460000     -30.22440000     -71.70050000
C      -45.01090000     -30.74140000     -73.64330000
C      -45.66320000     -32.86600000     -73.02060000
C      -46.70740000     -32.52020000     -73.87130000
S      -43.79420000     -29.39570000     -73.37950000
S      -46.47870000     -30.89770000     -74.46660000
H      -47.50950000     -33.16500000     -74.04660000
