40
Properties=species:S:1:pos:R:3 #=T CELL(abcABC):=T 1.889726e+02=T 90.00000=T Traj:=T positionsangstrom=T Step:=T 0=T Bead:=T pbc="F F F"
C      -48.01270000     -34.64040000     -69.34060000
C      -47.15030000     -35.74100000     -69.47200000
C      -45.90470000     -35.61410000     -68.73590000
C      -45.63880000     -34.51070000     -67.94310000
C      -46.51280000     -33.35360000     -68.02070000
C      -47.68880000     -33.43170000     -68.68290000
H      -49.06080000     -34.86900000     -69.79890000
H      -45.20080000     -36.43000000     -68.76480000
H      -46.47940000     -32.42530000     -67.42540000
H      -48.33300000     -32.54300000     -68.80140000
C      -44.22900000     -34.27880000     -67.34840000
H      -43.76740000     -35.21670000     -66.94910000
H      -44.27180000     -33.56430000     -66.45620000
C      -47.46060000     -36.95410000     -70.21400000
H      -47.24630000     -37.80830000     -69.58200000
H      -48.55260000     -36.94990000     -70.54230000
S      -43.03200000     -33.84780000     -68.65470000
S      -46.28520000     -37.07020000     -71.70870000
C      -43.79950000     -32.58770000     -69.73070000
H      -44.85910000     -32.70250000     -69.78530000
H      -43.63890000     -31.60570000     -69.35310000
C      -46.58420000     -35.58180000     -72.80260000
H      -47.54610000     -35.15200000     -72.92570000
H      -46.22270000     -35.86060000     -73.77940000
C      -45.68550000     -34.32940000     -72.34370000
H      -46.04150000     -33.99920000     -71.33450000
H      -44.65130000     -34.57410000     -72.33580000
C      -42.97890000     -32.69970000     -71.08330000
H      -42.93190000     -33.71060000     -71.40830000
H      -41.96230000     -32.38910000     -70.88120000
C      -43.48390000     -31.75610000     -72.19680000
C      -42.91060000     -30.52770000     -72.46690000
C      -44.72790000     -31.94020000     -72.98680000
H      -42.11490000     -30.04350000     -71.87620000
C      -45.00280000     -30.84930000     -73.86370000
C      -45.67580000     -33.09460000     -73.20190000
C      -46.57220000     -32.75540000     -74.19330000
S      -43.73790000     -29.66770000     -73.68160000
S      -46.34020000     -31.13810000     -74.96150000
H      -47.46660000     -33.38330000     -74.47130000
