40
Properties=species:S:1:pos:R:3 #=T CELL(abcABC):=T 1.889726e+02=T 90.00000=T Traj:=T positionsangstrom=T Step:=T 0=T Bead:=T pbc="F F F"
C      -48.64450000     -35.06040000     -72.28000000
C      -47.88240000     -34.34850000     -73.26200000
C      -47.78210000     -33.01820000     -73.18250000
C      -48.55720000     -32.19650000     -72.27680000
C      -49.28720000     -32.88060000     -71.32250000
C      -49.30180000     -34.29250000     -71.32450000
H      -48.60480000     -36.14270000     -72.28680000
H      -47.11230000     -32.51230000     -73.92160000
H      -49.86820000     -32.32030000     -70.57790000
H      -49.86100000     -34.85350000     -70.53460000
C      -48.28250000     -30.75300000     -72.11320000
H      -48.53180000     -30.40680000     -71.09740000
H      -48.82410000     -30.17140000     -72.83090000
C      -47.11820000     -35.03530000     -74.38770000
H      -47.02340000     -36.09620000     -74.32280000
H      -47.59070000     -34.88320000     -75.40170000
S      -46.48650000     -30.43660000     -72.49000000
S      -45.41650000     -34.37200000     -74.58840000
C      -45.50750000     -30.94070000     -70.93780000
H      -44.49820000     -30.67650000     -71.26120000
H      -45.77230000     -30.20510000     -70.20170000
C      -44.54240000     -35.03030000     -73.12040000
H      -44.01070000     -35.90210000     -73.41200000
H      -45.24430000     -35.18480000     -72.33760000
C      -43.49990000     -33.95080000     -72.62490000
H      -42.71560000     -33.77410000     -73.31300000
H      -44.05720000     -33.02800000     -72.59750000
C      -45.71060000     -32.36700000     -70.46760000
H      -45.94610000     -33.07220000     -71.29550000
H      -46.74510000     -32.35460000     -69.98900000
C      -44.61310000     -32.82910000     -69.56260000
C      -44.59180000     -32.52190000     -68.20920000
C      -43.53690000     -33.64800000     -69.98280000
H      -45.33490000     -31.97200000     -67.65160000
C      -42.83350000     -34.08460000     -68.89960000
C      -42.96830000     -34.19320000     -71.20840000
C      -41.87660000     -34.97510000     -70.94160000
S      -43.25610000     -33.31260000     -67.41100000
S      -41.39660000     -34.99230000     -69.32990000
H      -41.28340000     -35.49750000     -71.70090000
