40
Properties=species:S:1:pos:R:3 #=T CELL(abcABC):=T 1.889726e+02=T 90.00000=T Traj:=T positionsangstrom=T Step:=T 0=T Bead:=T pbc="F F F"
C      -48.98590000     -33.40060000     -73.24100000
C      -48.62130000     -33.15070000     -71.87960000
C      -47.89370000     -31.93020000     -71.66570000
C      -47.54190000     -31.05180000     -72.67580000
C      -47.73100000     -31.44340000     -74.01720000
C      -48.59680000     -32.56660000     -74.30240000
H      -49.51030000     -34.35130000     -73.49100000
H      -47.60760000     -31.65480000     -70.62900000
H      -47.32950000     -30.96830000     -74.85330000
H      -48.70880000     -32.84580000     -75.33270000
C      -46.80370000     -29.81700000     -72.42060000
H      -47.52930000     -28.98120000     -72.46860000
H      -46.04360000     -29.68200000     -73.24290000
C      -48.95360000     -34.04470000     -70.70560000
H      -48.43530000     -33.55700000     -69.84580000
H      -50.01110000     -34.08570000     -70.57650000
S      -46.03170000     -29.72060000     -70.76680000
S      -48.34020000     -35.74710000     -70.98530000
C      -44.61410000     -30.90150000     -70.84070000
H      -44.51130000     -31.22250000     -71.89020000
H      -43.70260000     -30.33220000     -70.60410000
C      -46.63080000     -35.85270000     -70.52020000
H      -46.39430000     -36.91260000     -70.42610000
H      -46.53980000     -35.34520000     -69.55270000
C      -45.67810000     -35.12100000     -71.54250000
H      -45.86520000     -35.50250000     -72.56220000
H      -46.00430000     -34.07070000     -71.48900000
C      -44.74680000     -32.14550000     -69.84960000
H      -45.66130000     -32.56240000     -70.24690000
H      -44.85630000     -31.80320000     -68.80680000
C      -43.43250000     -33.00490000     -70.00750000
C      -42.26800000     -32.45020000     -69.53350000
C      -43.30410000     -34.34250000     -70.55230000
H      -42.12280000     -31.42400000     -69.36950000
C      -41.95910000     -34.71280000     -70.67450000
C      -44.16590000     -35.22080000     -71.32160000
C      -43.43930000     -36.27300000     -71.93730000
S      -40.86950000     -33.46300000     -70.06630000
S      -41.69600000     -36.15100000     -71.62510000
H      -43.98550000     -37.09140000     -72.43380000
