40
Properties=species:S:1:pos:R:3 #=T CELL(abcABC):=T 1.889726e+02=T 90.00000=T Traj:=T positionsangstrom=T Step:=T 0=T Bead:=T pbc="F F F"
C      -48.45100000     -33.58810000     -73.50440000
C      -48.65510000     -33.09010000     -72.24200000
C      -48.10510000     -31.83260000     -71.85740000
C      -47.53340000     -30.95720000     -72.83240000
C      -47.40730000     -31.47660000     -74.14730000
C      -47.87200000     -32.80160000     -74.49980000
H      -48.97400000     -34.49840000     -73.73640000
H      -48.26720000     -31.44030000     -70.82700000
H      -46.91210000     -30.89680000     -74.88740000
H      -47.50650000     -33.22440000     -75.47500000
C      -47.10670000     -29.54980000     -72.52370000
H      -48.01560000     -29.14430000     -71.99700000
H      -46.85910000     -29.14180000     -73.46560000
C      -49.21260000     -33.80940000     -71.09000000
H      -49.02490000     -33.19520000     -70.21900000
H      -50.30860000     -33.92350000     -71.34950000
S      -45.62390000     -29.53970000     -71.37530000
S      -48.53790000     -35.48920000     -70.88010000
C      -44.59790000     -31.07480000     -71.77060000
H      -45.12080000     -31.50310000     -72.58960000
H      -43.67810000     -30.64710000     -72.11130000
C      -46.74860000     -35.20620000     -70.24440000
H      -46.34640000     -36.01890000     -69.58330000
H      -46.81670000     -34.38070000     -69.53300000
C      -45.75130000     -35.00540000     -71.39490000
H      -46.01580000     -35.75510000     -72.15630000
H      -45.93060000     -34.05430000     -71.81250000
C      -44.45220000     -31.91100000     -70.52750000
H      -45.40440000     -32.51750000     -70.56010000
H      -44.44310000     -31.32630000     -69.63790000
C      -43.22980000     -32.82650000     -70.37700000
C      -41.96870000     -32.42100000     -69.99510000
C      -43.28130000     -34.27720000     -70.46870000
H      -41.68250000     -31.40770000     -69.78390000
C      -42.08160000     -34.99800000     -70.19680000
C      -44.32170000     -35.15150000     -70.97820000
C      -43.84170000     -36.42820000     -71.01400000
S      -40.85260000     -33.80670000     -69.79800000
S      -42.17870000     -36.69150000     -70.54910000
H      -44.30030000     -37.36140000     -71.29200000
