40
Properties=species:S:1:pos:R:3 #=T CELL(abcABC):=T 1.889726e+02=T 90.00000=T Traj:=T positionsangstrom=T Step:=T 0=T Bead:=T pbc="F F F"
C      -48.63240000     -33.43790000     -73.40980000
C      -48.50770000     -32.98700000     -72.10340000
C      -47.99400000     -31.73100000     -71.82420000
C      -47.48280000     -30.91820000     -72.87380000
C      -47.66050000     -31.35600000     -74.21160000
C      -48.12780000     -32.66900000     -74.48480000
H      -49.00360000     -34.41820000     -73.60480000
H      -47.85700000     -31.33750000     -70.83500000
H      -47.35450000     -30.62120000     -75.02260000
H      -48.27780000     -32.97000000     -75.53820000
C      -46.82370000     -29.61140000     -72.56330000
H      -47.41650000     -28.69150000     -72.36560000
H      -46.23080000     -29.20500000     -73.42290000
C      -49.04010000     -33.86370000     -70.99010000
H      -49.10700000     -33.44500000     -70.04900000
H      -50.13700000     -34.01850000     -71.27640000
S      -45.74760000     -29.68460000     -71.07100000
S      -48.43080000     -35.64110000     -70.79570000
C      -44.68760000     -31.25130000     -71.39090000
H      -44.97870000     -31.94650000     -72.20340000
H      -43.62890000     -30.94530000     -71.60480000
C      -46.72300000     -35.37800000     -70.32720000
H      -46.49450000     -36.37450000     -69.92140000
H      -46.79800000     -34.61590000     -69.57040000
C      -45.72280000     -35.02640000     -71.47600000
H      -46.04670000     -35.68720000     -72.32310000
H      -45.75010000     -33.95470000     -71.78870000
C      -44.62740000     -32.06720000     -70.11860000
H      -45.57330000     -32.57220000     -69.89040000
H      -44.49330000     -31.33200000     -69.30600000
C      -43.43530000     -32.98890000     -70.19380000
C      -42.22790000     -32.44030000     -69.88490000
C      -43.34600000     -34.32470000     -70.67050000
H      -42.11940000     -31.49160000     -69.35220000
C      -42.05890000     -34.81480000     -70.48870000
C      -44.28200000     -35.27890000     -71.17560000
C      -43.66160000     -36.50170000     -71.22040000
S      -40.96190000     -33.58230000     -70.05770000
S      -41.89890000     -36.50800000     -70.82050000
H      -44.18220000     -37.47000000     -71.47320000
