40
Properties=species:S:1:pos:R:3 #=T CELL(abcABC):=T 1.889726e+02=T 90.00000=T Traj:=T positionsangstrom=T Step:=T 0=T Bead:=T pbc="F F F"
C      -40.83170000     -32.38420000     -70.43490000
C      -42.06150000     -31.63400000     -70.76620000
C      -42.65050000     -31.90350000     -72.01790000
C      -42.09060000     -32.68670000     -73.09470000
C      -40.85850000     -33.32870000     -72.70680000
C      -40.26700000     -33.20340000     -71.41920000
H      -40.43920000     -32.30230000     -69.48830000
H      -43.64460000     -31.33760000     -72.19660000
H      -40.51880000     -33.93270000     -73.56650000
H      -39.43250000     -33.89860000     -71.20880000
C      -42.74140000     -32.89600000     -74.41520000
H      -42.05230000     -32.97510000     -75.35150000
H      -43.57180000     -32.19110000     -74.60730000
C      -42.78520000     -30.75350000     -69.83120000
H      -42.00280000     -30.13680000     -69.29380000
H      -43.59550000     -30.22240000     -70.33840000
S      -43.47250000     -34.64860000     -74.40610000
S      -43.64520000     -31.53490000     -68.42890000
C      -45.30520000     -34.37050000     -74.12580000
H      -45.62390000     -33.72840000     -74.90360000
H      -45.69280000     -35.42210000     -74.31440000
C      -45.40300000     -31.95820000     -68.84940000
H      -45.75140000     -31.24520000     -69.59290000
H      -45.92320000     -31.75550000     -67.95350000
C      -45.62790000     -33.35200000     -69.32330000
H      -45.05250000     -33.44460000     -70.24810000
H      -45.13730000     -34.02690000     -68.71470000
C      -45.73840000     -33.87300000     -72.71740000
H      -45.62400000     -32.76880000     -72.67270000
H      -45.13110000     -34.39430000     -71.95740000
C      -47.13600000     -34.13920000     -72.29850000
C      -48.20780000     -34.41630000     -73.12900000
C      -47.58340000     -34.05970000     -70.91150000
H      -48.16700000     -34.57150000     -74.26190000
C      -48.91370000     -34.42030000     -70.83310000
C      -47.04620000     -33.79490000     -69.60700000
C      -47.96660000     -33.96650000     -68.66420000
S      -49.79280000     -34.51880000     -72.35730000
S      -49.56930000     -34.49350000     -69.18940000
H      -47.84700000     -33.85310000     -67.59550000
