40
Properties=species:S:1:pos:R:3 #=T CELL(abcABC):=T 1.889726e+02=T 90.00000=T Traj:=T positionsangstrom=T Step:=T 0=T Bead:=T pbc="F F F"
C      -47.73440000     -35.83040000     -69.74370000
C      -46.55230000     -36.46800000     -70.15070000
C      -45.27660000     -36.20260000     -69.55470000
C      -45.23640000     -35.30540000     -68.51430000
C      -46.41590000     -34.62940000     -68.21690000
C      -47.63440000     -34.73850000     -68.81090000
H      -48.71220000     -36.08880000     -70.29970000
H      -44.32250000     -36.63650000     -69.90690000
H      -46.27510000     -33.86270000     -67.40700000
H      -48.44380000     -34.07040000     -68.63540000
C      -44.00300000     -34.93730000     -67.76490000
H      -43.49460000     -35.92180000     -67.46180000
H      -44.25140000     -34.45440000     -66.83470000
C      -46.57370000     -37.27180000     -71.51750000
H      -46.60040000     -38.37480000     -71.30390000
H      -47.50670000     -37.07560000     -72.03550000
S      -42.71500000     -33.99590000     -68.77340000
S      -45.23570000     -36.94820000     -72.76880000
C      -43.78780000     -32.67760000     -69.46080000
H      -44.87040000     -32.95610000     -69.39050000
H      -43.75930000     -31.81450000     -68.71810000
C      -45.53120000     -35.27830000     -73.42690000
H      -46.26090000     -35.39490000     -74.29260000
H      -44.66780000     -34.95300000     -73.97990000
C      -45.91080000     -34.11230000     -72.35960000
H      -46.88620000     -34.39010000     -72.13950000
H      -45.31950000     -34.25780000     -71.47960000
C      -43.32430000     -32.30750000     -70.90730000
H      -43.22310000     -33.26340000     -71.50550000
H      -42.25950000     -32.03540000     -70.90410000
C      -44.14060000     -31.26340000     -71.60340000
C      -43.71940000     -29.96570000     -71.55740000
C      -45.25800000     -31.49250000     -72.49470000
H      -42.99130000     -29.64280000     -70.86200000
C      -45.72890000     -30.25320000     -73.02880000
C      -45.93520000     -32.68670000     -72.96550000
C      -46.83270000     -32.33410000     -74.00070000
S      -44.82220000     -28.89120000     -72.51010000
S      -46.87690000     -30.57390000     -74.24240000
H      -47.45050000     -32.81720000     -74.65980000
