40
Properties=species:S:1:pos:R:3 #=T CELL(abcABC):=T 1.889726e+02=T 90.00000=T Traj:=T positionsangstrom=T Step:=T 0=T Bead:=T pbc="F F F"
C      -47.73320000     -35.64700000     -69.80790000
C      -46.58270000     -36.33230000     -70.24310000
C      -45.36470000     -36.15420000     -69.56270000
C      -45.27900000     -35.33280000     -68.47350000
C      -46.44790000     -34.70300000     -68.03720000
C      -47.65910000     -34.84340000     -68.68630000
H      -48.59890000     -35.76590000     -70.40080000
H      -44.41420000     -36.58700000     -69.99790000
H      -46.28850000     -34.10640000     -67.15580000
H      -48.56360000     -34.41360000     -68.22620000
C      -43.99770000     -35.13470000     -67.81500000
H      -43.49900000     -36.09410000     -67.73050000
H      -44.17740000     -34.65710000     -66.84860000
C      -46.59180000     -37.22220000     -71.44330000
H      -46.25820000     -38.19600000     -71.12900000
H      -47.57920000     -37.30210000     -71.92060000
S      -42.82490000     -33.93470000     -68.65020000
S      -45.27810000     -36.78800000     -72.72860000
C      -43.95970000     -32.81000000     -69.56380000
H      -44.85930000     -33.35120000     -69.85800000
H      -44.04040000     -31.96260000     -68.93540000
C      -45.76870000     -35.12970000     -73.46890000
H      -46.79810000     -35.23050000     -73.82990000
H      -45.08570000     -34.96080000     -74.33800000
C      -45.62330000     -34.06490000     -72.35470000
H      -46.33860000     -34.03440000     -71.48320000
H      -44.56570000     -34.09540000     -72.04100000
C      -43.23510000     -32.26060000     -70.88440000
H      -43.16840000     -33.03550000     -71.60520000
H      -42.28470000     -31.80460000     -70.62800000
C      -44.10420000     -31.28100000     -71.57520000
C      -43.91280000     -29.93590000     -71.40720000
C      -45.11070000     -31.57850000     -72.59310000
H      -43.28670000     -29.53030000     -70.69740000
C      -45.48420000     -30.39460000     -73.20940000
C      -45.85140000     -32.72330000     -73.02290000
C      -46.77030000     -32.42210000     -74.02370000
S      -44.87680000     -28.91630000     -72.44330000
S      -46.71860000     -30.68340000     -74.44970000
H      -47.36400000     -33.07410000     -74.60670000
