40
Properties=species:S:1:pos:R:3 #=T CELL(abcABC):=T 1.889726e+02=T 90.00000=T Traj:=T positionsangstrom=T Step:=T 0=T Bead:=T pbc="F F F"
C      -48.88270000     -34.97450000     -72.26130000
C      -47.98660000     -34.37480000     -73.16570000
C      -47.89200000     -32.99110000     -73.24860000
C      -48.45430000     -32.13880000     -72.29510000
C      -49.31350000     -32.74270000     -71.34730000
C      -49.58620000     -34.14630000     -71.39370000
H      -49.08120000     -36.06700000     -72.27760000
H      -47.18260000     -32.63550000     -74.02260000
H      -49.67930000     -32.05890000     -70.56580000
H      -50.42510000     -34.51910000     -70.85400000
C      -48.19050000     -30.63710000     -72.24890000
H      -48.56280000     -30.17840000     -71.30650000
H      -48.66230000     -30.06410000     -73.04050000
C      -47.07850000     -35.22670000     -74.06210000
H      -46.80820000     -36.13090000     -73.43330000
H      -47.61280000     -35.53980000     -74.87710000
S      -46.30080000     -30.16460000     -72.40740000
S      -45.53300000     -34.35120000     -74.59400000
C      -45.47050000     -30.85660000     -70.90920000
H      -44.37710000     -30.80690000     -71.11190000
H      -45.62570000     -30.27000000     -69.99670000
C      -44.37400000     -35.00050000     -73.19290000
H      -43.74710000     -35.84060000     -73.62630000
H      -45.02830000     -35.55460000     -72.43680000
C      -43.67680000     -33.80900000     -72.54880000
H      -42.82480000     -33.50460000     -73.25550000
H      -44.27220000     -32.92990000     -72.50420000
C      -45.71540000     -32.32980000     -70.47630000
H      -45.73520000     -32.95640000     -71.38460000
H      -46.61130000     -32.46940000     -69.92820000
C      -44.60530000     -32.88870000     -69.53990000
C      -44.65800000     -32.83160000     -68.13220000
C      -43.40760000     -33.62080000     -69.98860000
H      -45.51980000     -32.34820000     -67.67050000
C      -42.71720000     -34.16420000     -68.89790000
C      -42.94370000     -34.14720000     -71.24660000
C      -41.87000000     -35.01150000     -71.15960000
S      -43.24650000     -33.50120000     -67.39810000
S      -41.35900000     -35.16720000     -69.43020000
H      -41.55680000     -35.71620000     -71.98290000
