40
Properties=species:S:1:pos:R:3 #=T CELL(abcABC):=T 1.889726e+02=T 90.00000=T Traj:=T positionsangstrom=T Step:=T 0=T Bead:=T pbc="F F F"
C      -47.76310000     -35.77970000     -69.65340000
C      -46.58020000     -36.38630000     -70.08590000
C      -45.42810000     -36.22580000     -69.32710000
C      -45.40690000     -35.29780000     -68.28140000
C      -46.60890000     -34.67200000     -67.85260000
C      -47.80150000     -34.97300000     -68.48360000
H      -48.72180000     -35.93610000     -70.14040000
H      -44.55150000     -36.68500000     -69.70140000
H      -46.64010000     -34.11960000     -66.89760000
H      -48.74820000     -34.60380000     -68.12650000
C      -44.09240000     -34.97470000     -67.59120000
H      -43.48980000     -35.89060000     -67.55820000
H      -44.21300000     -34.67450000     -66.57510000
C      -46.58020000     -37.28820000     -71.27590000
H      -46.24950000     -38.27950000     -70.95560000
H      -47.59310000     -37.35440000     -71.51320000
S      -42.99770000     -33.84140000     -68.51720000
S      -45.54980000     -37.00630000     -72.79970000
C      -44.14220000     -32.70820000     -69.47630000
H      -44.96870000     -33.35990000     -69.82310000
H      -44.71780000     -31.92690000     -68.82090000
C      -45.85820000     -35.19440000     -73.50110000
H      -46.98630000     -34.99110000     -73.43510000
H      -45.59210000     -35.37710000     -74.51590000
C      -45.14730000     -34.11850000     -72.69380000
H      -45.46690000     -34.15790000     -71.68630000
H      -44.05860000     -34.15790000     -72.73860000
C      -43.35230000     -31.96510000     -70.55450000
H      -42.67440000     -32.61540000     -71.09010000
H      -42.65540000     -31.29550000     -70.11260000
C      -44.05190000     -31.12400000     -71.62580000
C      -43.72990000     -29.77120000     -71.64020000
C      -44.96590000     -31.46650000     -72.65590000
H      -43.22430000     -29.11460000     -70.93650000
C      -45.47340000     -30.35310000     -73.29970000
C      -45.50850000     -32.69330000     -73.22320000
C      -46.45060000     -32.48020000     -74.22560000
S      -44.72100000     -28.86780000     -72.77620000
S      -46.61420000     -30.80670000     -74.51480000
H      -47.12920000     -33.24380000     -74.75110000
