40
Properties=species:S:1:pos:R:3 #=T CELL(abcABC):=T 1.889726e+02=T 90.00000=T Traj:=T positionsangstrom=T Step:=T 0=T Bead:=T pbc="F F F"
C      -47.37960000     -36.62820000     -69.62850000
C      -46.11980000     -36.70950000     -70.24360000
C      -45.04460000     -36.02460000     -69.61550000
C      -45.27850000     -35.14780000     -68.51910000
C      -46.57190000     -35.06600000     -67.94870000
C      -47.59750000     -35.87250000     -68.47130000
H      -48.11610000     -37.36240000     -69.94380000
H      -44.17440000     -36.10930000     -70.21080000
H      -46.75760000     -34.48340000     -67.09290000
H      -48.57650000     -35.88690000     -68.02990000
C      -44.15520000     -34.31030000     -67.95320000
H      -43.78950000     -34.77200000     -67.07640000
H      -44.64810000     -33.39240000     -67.56470000
C      -45.90690000     -37.41740000     -71.54360000
H      -45.55200000     -38.44070000     -71.43540000
H      -46.89150000     -37.57910000     -71.96000000
S      -42.77340000     -33.76300000     -69.09370000
S      -44.76720000     -36.48830000     -72.77060000
C      -43.72310000     -32.54330000     -69.97810000
H      -44.80740000     -32.75760000     -69.81310000
H      -43.54200000     -31.51660000     -69.68720000
C      -45.55520000     -34.91400000     -73.36280000
H      -46.43550000     -34.98600000     -74.06050000
H      -44.89310000     -34.28720000     -74.04740000
C      -46.03200000     -34.01830000     -72.18090000
H      -46.93370000     -34.46590000     -71.79820000
H      -45.40600000     -34.01160000     -71.37880000
C      -43.26010000     -32.53770000     -71.41960000
H      -43.37880000     -33.45440000     -72.00350000
H      -42.15480000     -32.42940000     -71.32470000
C      -44.01830000     -31.42630000     -72.07230000
C      -43.49280000     -30.18200000     -72.26320000
C      -45.35600000     -31.57610000     -72.60100000
H      -42.59320000     -29.76250000     -71.79630000
C      -45.87410000     -30.34280000     -72.92270000
C      -46.27650000     -32.64810000     -72.76430000
C      -47.50540000     -32.20210000     -73.20990000
S      -44.70330000     -29.03370000     -72.82160000
S      -47.58200000     -30.43260000     -73.35300000
H      -48.38170000     -32.71900000     -73.34690000
