40
Properties=species:S:1:pos:R:3 #=T CELL(abcABC):=T 1.889726e+02=T 90.00000=T Traj:=T positionsangstrom=T Step:=T 0=T Bead:=T pbc="F F F"
C      -47.17440000     -36.82350000     -69.57710000
C      -46.05510000     -36.53860000     -70.34190000
C      -45.08790000     -35.65520000     -69.75210000
C      -45.26240000     -35.18190000     -68.45650000
C      -46.46720000     -35.45670000     -67.73220000
C      -47.42650000     -36.29020000     -68.32630000
H      -47.90290000     -37.41450000     -70.06480000
H      -44.11390000     -35.56950000     -70.31290000
H      -46.52940000     -35.20450000     -66.62750000
H      -48.40110000     -36.48030000     -67.96130000
C      -44.08120000     -34.49420000     -67.80860000
H      -43.49660000     -35.39440000     -67.33920000
H      -44.37760000     -33.91470000     -66.93980000
C      -45.85370000     -37.19120000     -71.69950000
H      -45.31810000     -38.15820000     -71.45190000
H      -46.79390000     -37.36610000     -72.22900000
S      -42.76280000     -33.84900000     -68.97420000
S      -44.70870000     -36.36160000     -72.83600000
C      -43.62840000     -32.63500000     -70.11530000
H      -44.61690000     -33.04020000     -70.06980000
H      -43.60760000     -31.54080000     -69.67270000
C      -45.80670000     -34.93940000     -73.30510000
H      -46.64130000     -35.45730000     -73.79330000
H      -45.11820000     -34.42060000     -73.89260000
C      -46.34410000     -34.03330000     -72.20070000
H      -47.37510000     -34.41040000     -71.86290000
H      -45.68120000     -33.93390000     -71.37400000
C      -43.18190000     -32.62440000     -71.58810000
H      -43.39220000     -33.55090000     -72.06900000
H      -42.16550000     -32.38860000     -71.64860000
C      -43.99490000     -31.48860000     -72.16760000
C      -43.47420000     -30.22730000     -72.38270000
C      -45.42580000     -31.56450000     -72.58020000
H      -42.41780000     -29.94270000     -72.11450000
C      -45.88820000     -30.26920000     -72.91490000
C      -46.53560000     -32.57080000     -72.64200000
C      -47.71980000     -31.99070000     -72.96220000
S      -44.71450000     -29.02910000     -72.89350000
S      -47.55550000     -30.25630000     -73.40390000
H      -48.66560000     -32.42120000     -72.69500000
