40
Properties=species:S:1:pos:R:3 #=T CELL(abcABC):=T 1.889726e+02=T 90.00000=T Traj:=T positionsangstrom=T Step:=T 0=T Bead:=T pbc="F F F"
C      -42.03150000     -31.33170000     -71.18390000
C      -42.08290000     -32.58750000     -71.81290000
C      -42.31780000     -33.73600000     -71.04640000
C      -42.42050000     -33.69120000     -69.65970000
C      -42.28420000     -32.43920000     -69.06720000
C      -42.16460000     -31.25180000     -69.75400000
H      -41.61660000     -30.47440000     -71.67240000
H      -42.36740000     -34.64290000     -71.61820000
H      -42.55110000     -32.32360000     -67.99530000
H      -42.21250000     -30.28040000     -69.27750000
C      -42.34550000     -35.02390000     -68.90610000
H      -41.53740000     -34.98100000     -68.10970000
H      -42.23120000     -35.84020000     -69.61170000
C      -41.91720000     -32.60060000     -73.31950000
H      -41.56780000     -31.65520000     -73.71680000
H      -41.21900000     -33.32070000     -73.67480000
S      -43.93810000     -35.24350000     -67.91940000
S      -43.56770000     -33.05160000     -74.02510000
C      -45.46860000     -35.39960000     -68.92940000
H      -45.38510000     -36.38260000     -69.40400000
H      -46.26580000     -35.39600000     -68.10640000
C      -44.55930000     -31.54080000     -73.50740000
H      -45.32590000     -31.34190000     -74.29320000
H      -43.98790000     -30.64030000     -73.39890000
C      -45.38820000     -31.61060000     -72.16340000
H      -44.82680000     -32.21960000     -71.44250000
H      -45.45800000     -30.61150000     -71.72720000
C      -45.63470000     -34.29890000     -69.92780000
H      -44.78410000     -34.18990000     -70.60900000
H      -45.60600000     -33.26400000     -69.40620000
C      -47.00200000     -34.26120000     -70.69870000
C      -48.00190000     -35.16970000     -70.41490000
C      -47.36670000     -33.35030000     -71.74150000
H      -47.80740000     -35.93290000     -69.62140000
C      -48.65700000     -33.61490000     -72.19260000
C      -46.82020000     -32.16150000     -72.38130000
C      -47.71520000     -31.54450000     -73.21800000
S      -49.40300000     -35.04640000     -71.39980000
S      -49.30030000     -32.36970000     -73.34170000
H      -47.59030000     -30.50680000     -73.48220000
