40
Properties=species:S:1:pos:R:3 #=T CELL(abcABC):=T 1.889726e+02=T 90.00000=T Traj:=T positionsangstrom=T Step:=T 0=T Bead:=T pbc="F F F"
C      -42.07920000     -31.26390000     -71.04300000
C      -41.93610000     -32.49070000     -71.74100000
C      -41.98000000     -33.70590000     -71.03170000
C      -42.27180000     -33.75410000     -69.65390000
C      -42.33410000     -32.51770000     -68.95860000
C      -42.29640000     -31.30220000     -69.66230000
H      -41.98450000     -30.32570000     -71.62630000
H      -41.86420000     -34.58280000     -71.71100000
H      -42.71400000     -32.52230000     -67.98530000
H      -42.50870000     -30.41470000     -69.06790000
C      -42.45350000     -35.03770000     -68.82800000
H      -41.63860000     -35.20840000     -68.12770000
H      -42.38410000     -35.98850000     -69.37490000
C      -41.96350000     -32.58580000     -73.29340000
H      -41.64730000     -31.63520000     -73.72940000
H      -41.31820000     -33.39760000     -73.66820000
S      -44.07010000     -34.96690000     -67.90840000
S      -43.66650000     -33.00600000     -73.75250000
C      -45.28330000     -35.46070000     -69.17170000
H      -44.87320000     -36.41750000     -69.57580000
H      -46.13730000     -35.84660000     -68.65120000
C      -44.54640000     -31.43120000     -73.31150000
H      -45.02190000     -30.95170000     -74.19000000
H      -43.73570000     -30.71350000     -73.00870000
C      -45.50670000     -31.51620000     -72.11540000
H      -45.05630000     -31.96280000     -71.23050000
H      -45.69660000     -30.52660000     -71.76060000
C      -45.52130000     -34.47450000     -70.30210000
H      -44.89300000     -34.58110000     -71.23440000
H      -45.24440000     -33.52260000     -69.99330000
C      -46.91560000     -34.35020000     -70.82990000
C      -47.87410000     -35.29100000     -70.53250000
C      -47.33500000     -33.34250000     -71.82370000
H      -47.89160000     -36.10490000     -69.85650000
C      -48.65460000     -33.64280000     -72.23310000
C      -46.86340000     -32.13370000     -72.41350000
C      -47.82350000     -31.61380000     -73.27060000
S      -49.39220000     -34.98900000     -71.43290000
S      -49.28030000     -32.59090000     -73.43040000
H      -47.79490000     -30.76140000     -74.05620000
