40
Properties=species:S:1:pos:R:3 #=T CELL(abcABC):=T 1.889726e+02=T 90.00000=T Traj:=T positionsangstrom=T Step:=T 0=T Bead:=T pbc="F F F"
C      -48.83720000     -33.30330000     -73.32090000
C      -48.34670000     -32.18540000     -72.61500000
C      -47.25060000     -31.54470000     -73.14290000
C      -46.50820000     -32.05230000     -74.21240000
C      -47.05680000     -33.16040000     -74.89030000
C      -48.28500000     -33.67480000     -74.48330000
H      -49.71940000     -33.80280000     -72.90450000
H      -46.87190000     -30.75940000     -72.48900000
H      -46.63620000     -33.44470000     -75.88300000
H      -48.68410000     -34.50760000     -75.08060000
C      -45.37060000     -31.23730000     -74.81880000
H      -45.66430000     -30.33820000     -75.23000000
H      -45.03840000     -31.89710000     -75.63580000
C      -49.13120000     -31.69760000     -71.34190000
H      -49.05690000     -30.58790000     -71.34010000
H      -50.26630000     -31.91870000     -71.44530000
S      -43.94100000     -30.85800000     -73.74670000
S      -48.61160000     -32.20920000     -69.64640000
C      -43.18530000     -32.44870000     -73.07940000
H      -42.68860000     -32.92200000     -74.00970000
H      -42.37140000     -32.10080000     -72.40650000
C      -46.77240000     -32.56220000     -69.68040000
H      -46.51140000     -32.33590000     -68.62460000
H      -46.26790000     -31.89280000     -70.36040000
C      -46.53580000     -34.06070000     -70.06360000
H      -47.31850000     -34.70400000     -69.61950000
H      -46.57610000     -34.36460000     -71.09590000
C      -44.12150000     -33.34760000     -72.17610000
H      -44.71750000     -34.03020000     -72.85650000
H      -44.95090000     -32.82600000     -71.70510000
C      -43.34300000     -34.16820000     -71.20010000
C      -41.95170000     -34.36190000     -71.21030000
C      -43.87890000     -34.66220000     -69.99850000
H      -41.36170000     -34.09070000     -72.06940000
C      -42.92990000     -35.28520000     -69.21670000
C      -45.22130000     -34.58600000     -69.46500000
C      -45.24340000     -35.28130000     -68.23300000
S      -41.34770000     -35.30140000     -69.88200000
S      -43.68540000     -35.89820000     -67.72320000
H      -46.14340000     -35.69650000     -67.77990000
