40
Properties=species:S:1:pos:R:3 #=T CELL(abcABC):=T 1.889726e+02=T 90.00000=T Traj:=T positionsangstrom=T Step:=T 0=T Bead:=T pbc="F F F"
C      -41.93660000     -31.41200000     -71.48050000
C      -42.42730000     -32.56230000     -72.03460000
C      -42.48100000     -33.69740000     -71.28330000
C      -42.17220000     -33.70250000     -69.88800000
C      -41.58180000     -32.53700000     -69.35760000
C      -41.49580000     -31.39330000     -70.16710000
H      -41.96940000     -30.41350000     -71.98360000
H      -42.97890000     -34.49480000     -71.85620000
H      -41.37980000     -32.48440000     -68.28800000
H      -41.17460000     -30.44820000     -69.79400000
C      -42.28850000     -34.92610000     -69.08530000
H      -41.44140000     -35.28800000     -68.48610000
H      -42.68240000     -35.73870000     -69.73750000
C      -42.68280000     -32.72000000     -73.53160000
H      -41.96630000     -32.04980000     -74.10320000
H      -42.51560000     -33.74580000     -73.88440000
S      -43.62580000     -34.55580000     -67.73130000
S      -44.33720000     -32.23560000     -74.18720000
C      -45.34420000     -34.94510000     -68.49980000
H      -45.38950000     -36.00680000     -68.82230000
H      -46.04540000     -34.80610000     -67.67980000
C      -44.93930000     -30.93740000     -73.02660000
H      -45.51070000     -30.26850000     -73.61870000
H      -44.01120000     -30.41830000     -72.73210000
C      -45.70890000     -31.45860000     -71.83860000
H      -45.12030000     -31.99670000     -71.17230000
H      -46.03470000     -30.64600000     -71.17290000
C      -45.79560000     -33.92610000     -69.52100000
H      -45.05660000     -33.68500000     -70.31710000
H      -45.95720000     -32.99040000     -69.03580000
C      -47.00570000     -34.29130000     -70.38070000
C      -47.77110000     -35.43320000     -70.20070000
C      -47.45970000     -33.50810000     -71.52980000
H      -47.50200000     -36.30930000     -69.59930000
C      -48.54390000     -34.09920000     -72.18510000
C      -46.98990000     -32.29440000     -72.12870000
C      -47.77730000     -32.00760000     -73.25150000
S      -49.09870000     -35.61310000     -71.39490000
S      -48.99830000     -33.25080000     -73.60170000
H      -47.68200000     -31.16280000     -73.96190000
