40
Properties=species:S:1:pos:R:3 #=T CELL(abcABC):=T 1.889726e+02=T 90.00000=T Traj:=T positionsangstrom=T Step:=T 0=T Bead:=T pbc="F F F"
C      -41.84460000     -31.41680000     -71.48530000
C      -42.35740000     -32.53000000     -72.10210000
C      -42.57720000     -33.74500000     -71.35710000
C      -42.32510000     -33.74090000     -69.96390000
C      -41.92970000     -32.51260000     -69.35340000
C      -41.65460000     -31.36740000     -70.10990000
H      -41.32210000     -30.71190000     -72.06430000
H      -42.81280000     -34.63020000     -71.97850000
H      -41.68240000     -32.50040000     -68.29610000
H      -41.22680000     -30.49160000     -69.65120000
C      -42.61440000     -34.88870000     -69.02360000
H      -41.70050000     -35.11490000     -68.44610000
H      -42.81930000     -35.77110000     -69.59430000
C      -42.50650000     -32.53750000     -73.61910000
H      -41.91940000     -31.69860000     -73.99550000
H      -42.13320000     -33.40730000     -74.10600000
S      -43.80560000     -34.61760000     -67.69080000
S      -44.32740000     -32.54440000     -73.98640000
C      -45.36260000     -35.07930000     -68.53840000
H      -45.13080000     -36.09720000     -68.85610000
H      -46.20800000     -35.00440000     -67.90300000
C      -44.84000000     -31.01040000     -73.12660000
H      -45.57810000     -30.41240000     -73.70920000
H      -43.97210000     -30.42290000     -72.86520000
C      -45.66050000     -31.38840000     -71.80630000
H      -45.01850000     -31.88110000     -71.05970000
H      -45.96110000     -30.38690000     -71.51070000
C      -45.57920000     -34.19960000     -69.74640000
H      -44.82670000     -34.59680000     -70.43320000
H      -45.25650000     -33.12930000     -69.55060000
C      -46.91670000     -34.30400000     -70.43030000
C      -47.71600000     -35.34670000     -70.20840000
C      -47.34250000     -33.42390000     -71.56920000
H      -47.54700000     -36.09400000     -69.41260000
C      -48.46330000     -33.99410000     -72.19540000
C      -46.83540000     -32.24060000     -72.24580000
C      -47.61750000     -31.98240000     -73.39780000
S      -49.10730000     -35.42270000     -71.26770000
S      -48.97300000     -33.10650000     -73.59840000
H      -47.50390000     -31.16630000     -74.05500000
