40
Properties=species:S:1:pos:R:3 #=T CELL(abcABC):=T 1.889726e+02=T 90.00000=T Traj:=T positionsangstrom=T Step:=T 0=T Bead:=T pbc="F F F"
C      -48.59020000     -33.61640000     -73.04310000
C      -48.37610000     -32.31480000     -72.52900000
C      -47.34770000     -31.51200000     -73.01000000
C      -46.60880000     -31.90050000     -74.15120000
C      -46.98440000     -33.17390000     -74.80260000
C      -47.96750000     -34.00160000     -74.22070000
H      -49.44390000     -34.18770000     -72.66750000
H      -47.33780000     -30.51100000     -72.65040000
H      -46.37190000     -33.56250000     -75.61140000
H      -48.33310000     -34.85350000     -74.73900000
C      -45.44810000     -31.06840000     -74.79400000
H      -45.70190000     -30.06540000     -74.82950000
H      -45.18210000     -31.41830000     -75.82360000
C      -49.23890000     -31.61820000     -71.45320000
H      -49.30880000     -30.50670000     -71.64280000
H      -50.19620000     -32.15870000     -71.53710000
S      -43.99630000     -30.94010000     -73.66410000
S      -48.54080000     -31.90720000     -69.76960000
C      -43.34680000     -32.56920000     -73.43440000
H      -43.54830000     -33.09280000     -74.36030000
H      -42.19790000     -32.50010000     -73.34210000
C      -46.77700000     -32.47800000     -69.82090000
H      -46.45830000     -32.20450000     -68.79690000
H      -46.14220000     -31.96350000     -70.55150000
C      -46.54090000     -33.99220000     -70.01860000
H      -47.31490000     -34.52590000     -69.46610000
H      -46.65010000     -34.23670000     -71.09040000
C      -43.95690000     -33.25540000     -72.24780000
H      -44.63450000     -34.05200000     -72.66230000
H      -44.47380000     -32.45030000     -71.69750000
C      -43.24730000     -34.04280000     -71.17480000
C      -41.94400000     -34.38840000     -71.19060000
C      -43.86520000     -34.54940000     -70.00450000
H      -41.33100000     -34.02040000     -71.98570000
C      -42.98380000     -35.31020000     -69.19780000
C      -45.21150000     -34.48780000     -69.45530000
C      -45.25320000     -35.22900000     -68.31170000
S      -41.43290000     -35.36770000     -69.81330000
S      -43.72190000     -36.10580000     -67.83650000
H      -46.18590000     -35.52500000     -67.80810000
