40
Properties=species:S:1:pos:R:3 #=T CELL(abcABC):=T 1.889726e+02=T 90.00000=T Traj:=T positionsangstrom=T Step:=T 0=T Bead:=T pbc="F F F"
C      -41.45410000     -32.31400000     -70.44520000
C      -42.47970000     -31.35440000     -70.49570000
C      -43.04190000     -31.03200000     -71.76590000
C      -42.59070000     -31.70080000     -72.89620000
C      -41.69460000     -32.74280000     -72.81490000
C      -41.13780000     -33.09770000     -71.57940000
H      -41.20930000     -32.63990000     -69.41420000
H      -43.60990000     -30.10000000     -71.85010000
H      -41.35860000     -33.29650000     -73.72470000
H      -40.31340000     -33.81030000     -71.47760000
C      -43.27410000     -31.35230000     -74.22630000
H      -42.44540000     -31.10560000     -74.96880000
H      -43.84080000     -30.44400000     -74.07980000
C      -42.80770000     -30.61270000     -69.25220000
H      -41.84980000     -30.69080000     -68.66990000
H      -43.28170000     -29.65080000     -69.37230000
S      -44.24080000     -32.68450000     -74.96400000
S      -43.91320000     -31.60320000     -68.09890000
C      -45.47890000     -33.02120000     -73.62210000
H      -45.53620000     -32.12700000     -73.08330000
H      -46.43320000     -33.09580000     -74.17700000
C      -45.30570000     -32.31420000     -69.11160000
H      -45.13300000     -31.95300000     -70.15370000
H      -46.15790000     -31.79280000     -68.67480000
C      -45.43320000     -33.80660000     -69.01740000
H      -44.51350000     -34.27530000     -69.47420000
H      -45.46550000     -33.98690000     -67.97360000
C      -45.18420000     -34.35750000     -72.76800000
H      -44.52430000     -34.11500000     -71.90620000
H      -44.62100000     -35.10830000     -73.36650000
C      -46.51230000     -34.84900000     -72.28110000
C      -47.33580000     -35.38130000     -73.20530000
C      -47.12000000     -34.84940000     -70.91430000
H      -47.19300000     -35.27790000     -74.29260000
C      -48.41780000     -35.24650000     -71.00620000
C      -46.72850000     -34.49350000     -69.53000000
C      -47.73160000     -34.68160000     -68.66010000
S      -48.89730000     -35.81770000     -72.60190000
S      -49.23860000     -35.20100000     -69.42400000
H      -47.63540000     -34.42220000     -67.62600000
