40
Properties=species:S:1:pos:R:3 #=T CELL(abcABC):=T 1.889726e+02=T 90.00000=T Traj:=T positionsangstrom=T Step:=T 0=T Bead:=T pbc="F F F"
C      -41.76220000     -32.73990000     -70.45250000
C      -42.63620000     -31.63080000     -70.66070000
C      -42.84360000     -31.12510000     -71.92520000
C      -42.47030000     -31.80220000     -73.07220000
C      -41.73520000     -32.98580000     -72.86400000
C      -41.37610000     -33.40780000     -71.61300000
H      -41.49820000     -33.06390000     -69.35260000
H      -43.47240000     -30.20730000     -72.05340000
H      -41.30620000     -33.57050000     -73.71320000
H      -40.61640000     -34.21850000     -71.52170000
C      -43.01160000     -31.24040000     -74.42840000
H      -42.15920000     -31.33530000     -75.08860000
H      -43.32050000     -30.22330000     -74.24060000
C      -43.20120000     -30.85640000     -69.47790000
H      -42.35740000     -30.28850000     -69.02480000
H      -44.05770000     -30.33480000     -69.79830000
S      -44.33020000     -32.29030000     -75.07370000
S      -43.74430000     -31.91130000     -67.93820000
C      -45.54850000     -32.41320000     -73.64690000
H      -45.40480000     -31.44900000     -73.10750000
H      -46.55070000     -32.44350000     -74.07080000
C      -45.39550000     -32.51280000     -68.59040000
H      -45.73240000     -31.80360000     -69.33910000
H      -46.09410000     -32.40280000     -67.72950000
C      -45.35370000     -33.98240000     -69.09720000
H      -44.70300000     -33.90790000     -69.99750000
H      -44.89760000     -34.61590000     -68.35260000
C      -45.31400000     -33.54840000     -72.59010000
H      -44.80030000     -33.13140000     -71.70190000
H      -44.62770000     -34.31680000     -73.10750000
C      -46.63170000     -34.21780000     -72.21370000
C      -47.42840000     -34.76280000     -73.24590000
C      -47.16370000     -34.62780000     -70.92000000
H      -47.25300000     -34.83490000     -74.25400000
C      -48.38140000     -35.31510000     -70.98940000
C      -46.70720000     -34.47340000     -69.51560000
C      -47.58580000     -35.04330000     -68.61870000
S      -48.85750000     -35.54500000     -72.62060000
S      -49.01080000     -35.77370000     -69.34140000
H      -47.57010000     -35.16280000     -67.55510000
