40
Properties=species:S:1:pos:R:3 #=T CELL(abcABC):=T 1.889726e+02=T 90.00000=T Traj:=T positionsangstrom=T Step:=T 0=T Bead:=T pbc="F F F"
C      -41.55850000     -33.12850000     -70.39180000
C      -42.35050000     -31.95450000     -70.28220000
C      -42.87060000     -31.32840000     -71.44180000
C      -42.53170000     -31.76340000     -72.72530000
C      -41.63910000     -32.86290000     -72.84910000
C      -41.31280000     -33.57750000     -71.71320000
H      -41.11390000     -33.64790000     -69.54790000
H      -43.31660000     -30.33120000     -71.31090000
H      -41.13950000     -33.27520000     -73.67870000
H      -40.76150000     -34.54730000     -71.91530000
C      -43.12870000     -30.96440000     -73.88750000
H      -42.33000000     -30.91730000     -74.65280000
H      -43.43490000     -29.97760000     -73.66110000
C      -42.45940000     -31.43770000     -68.92590000
H      -41.65900000     -31.65690000     -68.22060000
H      -42.74040000     -30.41120000     -68.93670000
S      -44.48130000     -31.76240000     -74.85840000
S      -43.82290000     -32.36900000     -68.01750000
C      -45.82890000     -32.15030000     -73.60480000
H      -45.80720000     -31.31600000     -73.00520000
H      -46.73180000     -32.17330000     -74.27650000
C      -45.01790000     -32.62310000     -69.42930000
H      -44.75530000     -32.01430000     -70.28910000
H      -46.02970000     -32.31810000     -69.06400000
C      -44.98430000     -34.12000000     -69.78010000
H      -44.39420000     -34.20700000     -70.62710000
H      -44.41700000     -34.71330000     -69.05190000
C      -45.66350000     -33.52730000     -72.93250000
H      -44.97450000     -33.44060000     -72.07240000
H      -45.23730000     -34.20540000     -73.75280000
C      -46.96790000     -34.11970000     -72.44780000
C      -48.05460000     -34.37430000     -73.27690000
C      -47.21700000     -34.56200000     -71.08560000
H      -48.14370000     -33.95440000     -74.27000000
C      -48.45050000     -35.12280000     -70.94510000
C      -46.35110000     -34.76850000     -69.96270000
C      -47.04280000     -35.43490000     -68.96020000
S      -49.47610000     -34.99540000     -72.37100000
S      -48.66920000     -35.92500000     -69.38510000
H      -46.62540000     -35.58550000     -67.96760000
