40
Properties=species:S:1:pos:R:3 #=T CELL(abcABC):=T 1.889726e+02=T 90.00000=T Traj:=T positionsangstrom=T Step:=T 0=T Bead:=T pbc="F F F"
C      -42.08000000     -30.13320000     -70.64830000
C      -42.62340000     -31.08560000     -71.55240000
C      -42.60910000     -32.43740000     -71.07020000
C      -42.12840000     -32.72810000     -69.75290000
C      -41.70560000     -31.69920000     -68.86860000
C      -41.59270000     -30.37780000     -69.39810000
H      -42.10400000     -29.10980000     -71.01970000
H      -42.94420000     -33.15210000     -71.77810000
H      -41.34010000     -31.90200000     -67.81860000
H      -41.35110000     -29.54260000     -68.77320000
C      -42.11710000     -34.17200000     -69.23920000
H      -41.23770000     -34.43400000     -68.63230000
H      -42.24800000     -34.86020000     -69.99930000
C      -43.05830000     -30.68300000     -72.92390000
H      -43.21840000     -29.56330000     -72.99330000
H      -42.20360000     -30.80320000     -73.64700000
S      -43.51140000     -34.45000000     -68.00110000
S      -44.38350000     -31.76710000     -73.68520000
C      -44.81220000     -35.24590000     -69.03750000
H      -44.37830000     -36.17960000     -69.51600000
H      -45.63740000     -35.59350000     -68.37400000
C      -46.03310000     -31.08660000     -73.20720000
H      -46.66910000     -31.14950000     -74.05630000
H      -45.91810000     -29.98910000     -73.04940000
C      -46.63840000     -31.70920000     -71.95290000
H      -45.84300000     -32.04870000     -71.23380000
H      -47.24590000     -30.92330000     -71.47820000
C      -45.35890000     -34.24430000     -70.08790000
H      -44.66610000     -33.89960000     -70.88510000
H      -45.69250000     -33.35740000     -69.55530000
C      -46.52490000     -34.86250000     -70.85890000
C      -46.80490000     -36.22750000     -70.65600000
C      -47.34580000     -34.31870000     -71.86420000
H      -46.45970000     -36.98260000     -69.98870000
C      -48.28310000     -35.19010000     -72.40640000
C      -47.47920000     -32.94490000     -72.38790000
C      -48.53030000     -32.88550000     -73.23420000
S      -48.12880000     -36.74840000     -71.75240000
S      -49.42360000     -34.35610000     -73.56040000
H      -48.98120000     -31.97270000     -73.67990000
