40
Properties=species:S:1:pos:R:3 #=T CELL(abcABC):=T 1.889726e+02=T 90.00000=T Traj:=T positionsangstrom=T Step:=T 0=T Bead:=T pbc="F F F"
C      -41.45670000     -33.17980000     -70.50470000
C      -42.22750000     -31.98700000     -70.36680000
C      -42.73210000     -31.25990000     -71.50440000
C      -42.56450000     -31.83930000     -72.71430000
C      -41.93410000     -33.09430000     -72.88150000
C      -41.29410000     -33.71470000     -71.80440000
H      -40.94910000     -33.57660000     -69.68360000
H      -43.28450000     -30.38870000     -71.31030000
H      -41.84130000     -33.69210000     -73.82320000
H      -40.65060000     -34.61600000     -71.85300000
C      -43.02520000     -31.11980000     -73.96730000
H      -42.20830000     -30.93330000     -74.75710000
H      -43.36830000     -30.09290000     -73.73790000
C      -42.56460000     -31.31810000     -69.00620000
H      -41.62160000     -31.22850000     -68.38380000
H      -42.73010000     -30.25860000     -69.21680000
S      -44.40630000     -31.98950000     -74.90570000
S      -43.93620000     -32.08400000     -68.00410000
C      -45.75700000     -32.08520000     -73.61640000
H      -45.72040000     -31.24130000     -72.90170000
H      -46.76620000     -31.93710000     -74.11110000
C      -45.20480000     -32.67330000     -69.19260000
H      -45.27660000     -32.06010000     -70.09550000
H      -46.18320000     -32.56170000     -68.63910000
C      -44.97470000     -34.17430000     -69.53650000
H      -44.25200000     -34.32400000     -70.30310000
H      -44.64770000     -34.62500000     -68.56480000
C      -45.70750000     -33.43530000     -72.89270000
H      -45.03120000     -33.44060000     -72.09220000
H      -45.31200000     -34.15580000     -73.58820000
C      -47.00430000     -33.88600000     -72.33460000
C      -48.13940000     -33.99570000     -73.12090000
C      -47.11860000     -34.64260000     -71.09860000
H      -48.30960000     -33.54060000     -74.10770000
C      -48.36260000     -35.27720000     -70.99370000
C      -46.37920000     -34.75340000     -69.87990000
C      -47.05890000     -35.44070000     -68.90350000
S      -49.35370000     -35.00530000     -72.41460000
S      -48.68510000     -35.95910000     -69.46420000
H      -46.71900000     -35.78980000     -68.00110000
