40
Properties=species:S:1:pos:R:3 #=T CELL(abcABC):=T 1.889726e+02=T 90.00000=T Traj:=T positionsangstrom=T Step:=T 0=T Bead:=T pbc="F F F"
C      -41.90990000     -33.34960000     -70.60790000
C      -42.45340000     -32.05670000     -70.50500000
C      -42.70810000     -31.34300000     -71.68230000
C      -42.50740000     -31.92090000     -72.93100000
C      -41.96180000     -33.20880000     -73.02130000
C      -41.76090000     -33.93730000     -71.86210000
H      -41.46670000     -33.83490000     -69.64750000
H      -43.15730000     -30.35640000     -71.56550000
H      -41.83130000     -33.52350000     -73.99550000
H      -41.31180000     -34.96220000     -71.82370000
C      -43.05440000     -31.11390000     -74.05020000
H      -42.26330000     -30.91510000     -74.79730000
H      -43.30460000     -30.06610000     -73.75270000
C      -42.58860000     -31.32990000     -69.17700000
H      -41.66580000     -31.66080000     -68.62400000
H      -42.65550000     -30.24850000     -69.25580000
S      -44.38570000     -32.07070000     -74.91040000
S      -43.99550000     -31.79160000     -67.99840000
C      -45.75780000     -32.16370000     -73.63230000
H      -45.86110000     -31.21180000     -73.11030000
H      -46.66560000     -32.20320000     -74.23090000
C      -45.26830000     -32.48610000     -69.17220000
H      -45.06380000     -32.07180000     -70.12900000
H      -46.30350000     -32.20250000     -68.83500000
C      -45.12550000     -34.01060000     -69.25080000
H      -44.30390000     -34.15670000     -69.96080000
H      -44.83220000     -34.41410000     -68.26320000
C      -45.54160000     -33.24750000     -72.57460000
H      -45.05510000     -32.87720000     -71.66240000
H      -44.93190000     -34.00260000     -72.93800000
C      -46.85500000     -33.84040000     -72.17870000
C      -47.92690000     -33.96410000     -73.04640000
C      -47.15800000     -34.41850000     -70.90190000
H      -48.07780000     -33.63040000     -74.07820000
C      -48.36290000     -35.17670000     -70.91450000
C      -46.42880000     -34.69320000     -69.67010000
C      -47.01840000     -35.60010000     -68.86760000
S      -49.20190000     -34.92850000     -72.42860000
S      -48.44530000     -36.26140000     -69.57570000
H      -46.84170000     -35.85450000     -67.78970000
