40
Properties=species:S:1:pos:R:3 #=T CELL(abcABC):=T 1.889726e+02=T 90.00000=T Traj:=T positionsangstrom=T Step:=T 0=T Bead:=T pbc="F F F"
C      -41.38280000     -32.46230000     -70.71880000
C      -42.54070000     -31.81810000     -70.24590000
C      -43.42090000     -31.23070000     -71.18350000
C      -43.14690000     -31.18320000     -72.49330000
C      -41.87090000     -31.68320000     -72.93750000
C      -41.02530000     -32.39230000     -72.06150000
H      -40.83010000     -33.07250000     -69.96000000
H      -44.31690000     -30.77100000     -70.90520000
H      -41.62080000     -31.60330000     -73.98870000
H      -40.12640000     -32.74190000     -72.46740000
C      -44.04740000     -30.45130000     -73.48870000
H      -43.57490000     -29.55160000     -73.92010000
H      -44.93920000     -30.12670000     -72.97360000
C      -42.98650000     -31.80260000     -68.79390000
H      -42.42610000     -31.04760000     -68.15310000
H      -43.99330000     -31.39700000     -68.73160000
S      -44.56860000     -31.52860000     -74.90160000
S      -42.82750000     -33.51600000     -68.09640000
C      -45.91550000     -32.64050000     -74.24450000
H      -46.80870000     -32.08080000     -74.28020000
H      -45.97160000     -33.47100000     -74.96490000
C      -44.50470000     -34.19590000     -68.36080000
H      -45.17920000     -33.87400000     -67.54950000
H      -44.23670000     -35.28040000     -68.28680000
C      -45.07760000     -33.94310000     -69.73620000
H      -45.14030000     -32.84720000     -69.78970000
H      -44.39040000     -34.14550000     -70.60410000
C      -45.67850000     -33.26540000     -72.87460000
H      -45.56690000     -32.45500000     -72.16160000
H      -44.75240000     -33.80780000     -72.88030000
C      -46.93350000     -33.99790000     -72.40960000
C      -47.93900000     -34.31210000     -73.29880000
C      -47.19940000     -34.57850000     -71.09610000
H      -48.13710000     -33.98420000     -74.27260000
C      -48.45570000     -35.14210000     -71.04520000
C      -46.41550000     -34.66400000     -69.90910000
C      -47.12740000     -35.33030000     -68.92800000
S      -49.36720000     -35.10610000     -72.53080000
S      -48.68920000     -35.94900000     -69.48620000
H      -46.64390000     -35.58430000     -67.95300000
