40
Properties=species:S:1:pos:R:3 #=T CELL(abcABC):=T 1.889726e+02=T 90.00000=T Traj:=T positionsangstrom=T Step:=T 0=T Bead:=T pbc="F F F"
C      -41.16750000     -32.47820000     -70.64820000
C      -42.29510000     -31.74890000     -70.25400000
C      -43.16720000     -31.22800000     -71.23880000
C      -42.85630000     -31.33150000     -72.63120000
C      -41.73680000     -32.09560000     -72.97620000
C      -40.84130000     -32.60980000     -72.03630000
H      -40.47270000     -32.90810000     -69.92420000
H      -44.09850000     -30.73440000     -70.94610000
H      -41.53920000     -32.17080000     -74.00460000
H      -39.90410000     -33.19240000     -72.24230000
C      -43.67850000     -30.67550000     -73.66930000
H      -43.04170000     -30.15630000     -74.38300000
H      -44.34610000     -29.97520000     -73.18650000
C      -42.64370000     -31.60000000     -68.77030000
H      -41.84980000     -31.19490000     -68.21520000
H      -43.43520000     -30.82500000     -68.75010000
S      -44.67510000     -31.69090000     -74.93350000
S      -43.07070000     -33.20710000     -67.99900000
C      -46.07840000     -32.41490000     -74.02880000
H      -46.58520000     -31.54350000     -73.61160000
H      -46.71030000     -32.82450000     -74.75330000
C      -44.81980000     -33.47090000     -68.64100000
H      -45.38440000     -32.51510000     -68.71380000
H      -45.26490000     -34.08380000     -67.86890000
C      -44.95340000     -34.37900000     -69.86340000
H      -44.48780000     -33.98890000     -70.75970000
H      -44.43440000     -35.32620000     -69.59750000
C      -45.76890000     -33.47420000     -72.96560000
H      -45.41720000     -32.92510000     -72.06540000
H      -44.90280000     -34.09200000     -73.34240000
C      -47.05250000     -34.23210000     -72.56690000
C      -48.07180000     -34.53760000     -73.35510000
C      -47.25800000     -34.62390000     -71.18120000
H      -48.07210000     -34.63360000     -74.51710000
C      -48.51550000     -35.17480000     -70.94980000
C      -46.44450000     -34.72180000     -69.97280000
C      -47.11830000     -35.26070000     -68.90390000
S      -49.43190000     -35.12440000     -72.43710000
S      -48.78880000     -35.69470000     -69.30460000
H      -46.66080000     -35.44140000     -67.94560000
