40
Properties=species:S:1:pos:R:3 #=T CELL(abcABC):=T 1.889726e+02=T 90.00000=T Traj:=T positionsangstrom=T Step:=T 0=T Bead:=T pbc="F F F"
C      -43.41690000     -32.79400000     -74.31090000
C      -44.80980000     -32.83390000     -74.40990000
C      -45.63880000     -31.78890000     -73.90120000
C      -45.04250000     -30.64750000     -73.39250000
C      -43.67360000     -30.57230000     -73.30760000
C      -42.84670000     -31.65300000     -73.73390000
H      -42.82900000     -33.60570000     -74.66270000
H      -46.73650000     -31.75200000     -74.10080000
H      -43.21800000     -29.66840000     -72.87750000
H      -41.75010000     -31.56930000     -73.72730000
C      -45.86350000     -29.48780000     -72.88350000
H      -46.89750000     -29.65550000     -73.13980000
H      -45.54300000     -28.57910000     -73.26240000
C      -45.43130000     -33.98140000     -75.19200000
H      -46.54910000     -33.96760000     -75.30490000
H      -45.06280000     -33.83440000     -76.20610000
S      -45.66930000     -29.37920000     -71.00170000
S      -45.03150000     -35.71400000     -74.70360000
C      -45.37430000     -31.08490000     -70.45080000
H      -44.41070000     -31.51380000     -70.93730000
H      -45.12440000     -30.96880000     -69.39200000
C      -45.58790000     -35.62100000     -72.93140000
H      -46.06140000     -36.63370000     -72.68150000
H      -46.49710000     -34.95460000     -72.80720000
C      -44.60020000     -35.00550000     -71.86230000
H      -43.66520000     -35.47820000     -72.01810000
H      -44.52600000     -33.91330000     -72.07840000
C      -46.41690000     -32.19220000     -70.68760000
H      -46.27690000     -32.63020000     -71.68730000
H      -47.42200000     -31.74270000     -70.74290000
C      -46.38640000     -33.25600000     -69.55490000
C      -46.92450000     -32.91760000     -68.31930000
C      -45.65690000     -34.52220000     -69.50970000
H      -47.47660000     -32.03370000     -67.93080000
C      -45.67940000     -35.09570000     -68.19780000
C      -44.85510000     -35.28860000     -70.41760000
C      -44.51390000     -36.50710000     -69.86360000
S      -46.61850000     -34.16940000     -67.10260000
S      -45.01030000     -36.71800000     -68.16750000
H      -43.94700000     -37.27340000     -70.35250000
