40
Properties=species:S:1:pos:R:3 #=T CELL(abcABC):=T 1.889726e+02=T 90.00000=T Traj:=T positionsangstrom=T Step:=T 0=T Bead:=T pbc="F F F"
C      -43.30950000     -32.88290000     -74.46070000
C      -44.70210000     -32.83440000     -74.62150000
C      -45.42180000     -31.69060000     -74.17780000
C      -44.81920000     -30.59480000     -73.53360000
C      -43.43180000     -30.74300000     -73.26340000
C      -42.76060000     -31.85070000     -73.73370000
H      -42.76790000     -33.77770000     -74.80000000
H      -46.50930000     -31.67460000     -74.21970000
H      -42.95670000     -30.05150000     -72.60640000
H      -41.72880000     -31.95210000     -73.42190000
C      -45.61810000     -29.39040000     -73.02450000
H      -46.50590000     -29.30980000     -73.62710000
H      -45.00030000     -28.48970000     -73.28770000
C      -45.42420000     -33.95040000     -75.27280000
H      -46.53160000     -33.84260000     -75.25730000
H      -45.09310000     -34.03520000     -76.33450000
S      -45.98990000     -29.36920000     -71.17750000
S      -44.96890000     -35.57850000     -74.51510000
C      -45.29940000     -30.93270000     -70.38090000
H      -44.25510000     -31.09990000     -70.79280000
H      -45.27730000     -30.60750000     -69.30570000
C      -45.51550000     -35.55900000     -72.76960000
H      -45.80370000     -36.58150000     -72.48000000
H      -46.44450000     -34.91980000     -72.70860000
C      -44.48660000     -35.11200000     -71.75700000
H      -43.57750000     -35.72570000     -72.00130000
H      -44.26280000     -34.08180000     -71.94580000
C      -46.19180000     -32.19840000     -70.69580000
H      -45.66200000     -32.69380000     -71.55110000
H      -47.21450000     -31.83530000     -71.04290000
C      -46.34110000     -33.21220000     -69.48100000
C      -46.91120000     -32.87620000     -68.30160000
C      -45.66310000     -34.49980000     -69.41060000
H      -47.49030000     -32.07400000     -67.94380000
C      -45.86820000     -35.21610000     -68.20610000
C      -44.90580000     -35.34420000     -70.32560000
C      -44.51890000     -36.53860000     -69.76880000
S      -46.91100000     -34.20930000     -67.13650000
S      -45.12810000     -36.74840000     -68.06470000
H      -43.87310000     -37.30270000     -70.10180000
