40
Properties=species:S:1:pos:R:3 #=T CELL(abcABC):=T 1.889726e+02=T 90.00000=T Traj:=T positionsangstrom=T Step:=T 0=T Bead:=T pbc="F F F"
C      -43.51390000     -32.80240000     -74.60520000
C      -44.90470000     -32.80030000     -74.62120000
C      -45.62690000     -31.72000000     -74.11140000
C      -45.00690000     -30.62880000     -73.49960000
C      -43.56840000     -30.55310000     -73.47540000
C      -42.85440000     -31.67880000     -73.93210000
H      -42.92750000     -33.62090000     -74.91850000
H      -46.65410000     -31.94880000     -74.02840000
H      -43.05650000     -29.73960000     -72.93250000
H      -41.79540000     -31.73300000     -73.81520000
C      -45.88190000     -29.62620000     -72.71260000
H      -46.96570000     -29.91520000     -72.92080000
H      -45.76950000     -28.56660000     -73.14020000
C      -45.63820000     -33.96690000     -75.20560000
H      -46.67080000     -33.81210000     -74.91080000
H      -45.47100000     -33.91750000     -76.28540000
S      -45.50290000     -29.40370000     -70.98920000
S      -45.05110000     -35.60490000     -74.55750000
C      -45.11810000     -31.17130000     -70.40510000
H      -44.20710000     -31.46240000     -70.88840000
H      -44.89590000     -31.02900000     -69.35520000
C      -45.70980000     -35.77170000     -72.82540000
H      -45.69610000     -36.76400000     -72.54840000
H      -46.72280000     -35.44890000     -72.75560000
C      -44.74690000     -34.98200000     -71.90570000
H      -43.73220000     -35.37540000     -72.08350000
H      -44.80630000     -33.89180000     -72.08040000
C      -46.35670000     -32.10000000     -70.47410000
H      -46.36340000     -32.43110000     -71.54280000
H      -47.21510000     -31.46370000     -70.27780000
C      -46.34920000     -33.18970000     -69.41620000
C      -46.86110000     -32.88180000     -68.17450000
C      -45.72400000     -34.52230000     -69.48250000
H      -47.18180000     -31.90270000     -67.79110000
C      -45.84160000     -35.18610000     -68.28640000
C      -45.02540000     -35.30330000     -70.47250000
C      -44.58010000     -36.49380000     -69.92850000
S      -46.67060000     -34.26390000     -67.04460000
S      -44.87690000     -36.64100000     -68.19540000
H      -44.08720000     -37.35540000     -70.40020000
