40
Properties=species:S:1:pos:R:3 #=T CELL(abcABC):=T 1.889726e+02=T 90.00000=T Traj:=T positionsangstrom=T Step:=T 0=T Bead:=T pbc="F F F"
C      -43.78710000     -32.38690000     -74.72160000
C      -45.15080000     -32.61610000     -74.57270000
C      -45.86870000     -31.74810000     -73.75820000
C      -45.28990000     -30.59620000     -73.21230000
C      -43.92100000     -30.38370000     -73.41360000
C      -43.16830000     -31.29800000     -74.16210000
H      -43.14110000     -33.05390000     -75.28240000
H      -46.89960000     -31.92880000     -73.50760000
H      -43.45210000     -29.46520000     -73.07520000
H      -42.10600000     -31.08510000     -74.40850000
C      -46.07390000     -29.64510000     -72.35860000
H      -47.11260000     -29.84300000     -72.19970000
H      -46.09590000     -28.69060000     -72.93240000
C      -45.95010000     -33.76690000     -75.19560000
H      -46.97000000     -33.62890000     -74.89040000
H      -46.02270000     -33.71420000     -76.29300000
S      -45.27740000     -29.48850000     -70.67870000
S      -45.46390000     -35.46030000     -74.71810000
C      -45.01290000     -31.19700000     -70.11210000
H      -44.02940000     -31.62120000     -70.54890000
H      -44.81350000     -30.97250000     -69.03630000
C      -45.77600000     -35.53760000     -72.95340000
H      -45.84780000     -36.63910000     -72.77080000
H      -46.72690000     -35.09930000     -72.64770000
C      -44.65780000     -34.90190000     -72.10960000
H      -43.69610000     -35.32860000     -72.45340000
H      -44.58290000     -33.81730000     -72.30270000
C      -46.23670000     -32.14090000     -70.27820000
H      -46.12600000     -32.51020000     -71.33460000
H      -47.25820000     -31.60700000     -70.25140000
C      -46.23950000     -33.32430000     -69.34080000
C      -46.72620000     -33.19320000     -68.04600000
C      -45.66450000     -34.62600000     -69.63350000
H      -47.25070000     -32.30100000     -67.75840000
C      -45.60850000     -35.38210000     -68.48790000
C      -44.80970000     -35.24730000     -70.64240000
C      -44.18670000     -36.40850000     -70.12440000
S      -46.35240000     -34.59210000     -67.05560000
S      -44.65620000     -36.80250000     -68.49790000
H      -43.50220000     -37.05490000     -70.67140000
