40
Properties=species:S:1:pos:R:3 #=T CELL(abcABC):=T 1.889726e+02=T 90.00000=T Traj:=T positionsangstrom=T Step:=T 0=T Bead:=T pbc="F F F"
C      -45.94320000     -34.82180000     -74.84490000
C      -46.52030000     -35.33170000     -73.65560000
C      -47.48900000     -34.52270000     -73.00170000
C      -47.97860000     -33.33770000     -73.61240000
C      -47.38450000     -32.91350000     -74.81910000
C      -46.41320000     -33.69940000     -75.43760000
H      -45.34890000     -35.47430000     -75.44360000
H      -47.90530000     -34.88550000     -71.96670000
H      -47.80350000     -32.06860000     -75.35530000
H      -46.10980000     -33.32030000     -76.35670000
C      -49.04190000     -32.60990000     -72.87410000
H      -49.96890000     -33.11480000     -73.23350000
H      -49.02560000     -31.57600000     -73.18970000
C      -46.09460000     -36.69870000     -73.21650000
H      -46.68970000     -37.02450000     -72.29370000
H      -46.28540000     -37.40160000     -74.01780000
S      -49.12460000     -32.67680000     -71.04210000
S      -44.21510000     -36.76990000     -72.99400000
C      -47.69110000     -31.69500000     -70.41160000
H      -47.80900000     -30.64170000     -70.75670000
H      -47.80510000     -31.72250000     -69.29130000
C      -43.95810000     -35.67730000     -71.52860000
H      -43.09790000     -36.08700000     -71.06070000
H      -44.82390000     -35.78400000     -70.89480000
C      -43.60250000     -34.22720000     -71.80960000
H      -42.83360000     -34.12280000     -72.64030000
H      -44.51820000     -33.75710000     -72.23850000
C      -46.29570000     -32.39320000     -70.78800000
H      -45.87700000     -32.03800000     -71.78000000
H      -46.42240000     -33.47110000     -70.91170000
C      -45.24980000     -32.05850000     -69.80200000
C      -45.43110000     -31.08060000     -68.82950000
C      -43.84560000     -32.56510000     -69.77010000
H      -46.31760000     -30.37540000     -68.69880000
C      -43.11340000     -31.91310000     -68.80900000
C      -43.06780000     -33.46350000     -70.60930000
C      -41.80190000     -33.55200000     -70.17070000
S      -43.99010000     -30.74110000     -67.83960000
S      -41.43540000     -32.51820000     -68.79490000
H      -40.98800000     -33.96600000     -70.80370000
