40
Properties=species:S:1:pos:R:3 #=T CELL(abcABC):=T 1.889726e+02=T 90.00000=T Traj:=T positionsangstrom=T Step:=T 0=T Bead:=T pbc="F F F"
C      -43.92270000     -32.41420000     -75.03260000
C      -45.32370000     -32.52840000     -74.84130000
C      -45.89440000     -31.60590000     -73.96960000
C      -45.26030000     -30.55270000     -73.34970000
C      -43.86810000     -30.44640000     -73.60280000
C      -43.20770000     -31.40690000     -74.44590000
H      -43.28780000     -33.08040000     -75.56960000
H      -46.97740000     -31.71240000     -73.88250000
H      -43.27860000     -29.80730000     -72.98370000
H      -42.10320000     -31.44810000     -74.39270000
C      -45.93000000     -29.61230000     -72.36640000
H      -47.05400000     -29.81550000     -72.35530000
H      -45.75220000     -28.63450000     -72.76080000
C      -46.02620000     -33.75240000     -75.33880000
H      -47.09360000     -33.72580000     -74.99150000
H      -45.99850000     -33.95910000     -76.42120000
S      -45.13070000     -29.61110000     -70.66460000
S      -45.37050000     -35.35450000     -74.64490000
C      -45.09020000     -31.43400000     -70.33880000
H      -44.46040000     -31.85630000     -71.01400000
H      -44.51690000     -31.53150000     -69.43450000
C      -45.75420000     -35.39550000     -72.83070000
H      -45.86910000     -36.40210000     -72.51440000
H      -46.74560000     -34.88250000     -72.66390000
C      -44.73240000     -34.73600000     -71.95480000
H      -43.64210000     -34.80970000     -72.27580000
H      -44.93120000     -33.67580000     -71.98520000
C      -46.40800000     -32.25990000     -70.35330000
H      -46.47980000     -32.69810000     -71.33480000
H      -47.22000000     -31.62590000     -70.12840000
C      -46.17500000     -33.31360000     -69.25540000
C      -46.67960000     -33.10640000     -67.97520000
C      -45.39350000     -34.58280000     -69.40180000
H      -47.16080000     -32.19790000     -67.70500000
C      -45.42070000     -35.29740000     -68.23540000
C      -44.80750000     -35.31410000     -70.50330000
C      -44.41460000     -36.60480000     -70.12310000
S      -46.43250000     -34.50230000     -66.96510000
S      -44.72290000     -36.86410000     -68.35050000
H      -43.88160000     -37.28650000     -70.81850000
