40
Properties=species:S:1:pos:R:3 #=T CELL(abcABC):=T 1.889726e+02=T 90.00000=T Traj:=T positionsangstrom=T Step:=T 0=T Bead:=T pbc="F F F"
C      -49.61960000     -33.90790000     -72.10820000
C      -48.62910000     -33.79840000     -73.09180000
C      -47.85250000     -32.63610000     -73.06430000
C      -48.18640000     -31.60040000     -72.12660000
C      -49.09510000     -31.81160000     -71.12210000
C      -49.83350000     -33.00920000     -71.09910000
H      -50.22940000     -34.82210000     -72.04990000
H      -47.06260000     -32.50390000     -73.83450000
H      -49.31400000     -31.05380000     -70.34530000
H      -50.36460000     -33.31150000     -70.17510000
C      -47.38420000     -30.33060000     -72.32190000
H      -47.75360000     -29.49950000     -71.72510000
H      -47.57270000     -30.03550000     -73.29230000
C      -48.12950000     -34.96620000     -73.89940000
H      -48.56090000     -35.89710000     -73.43300000
H      -48.59420000     -34.97150000     -75.00300000
S      -45.49470000     -30.45450000     -72.34600000
S      -46.33050000     -34.96180000     -74.27110000
C      -45.00150000     -30.99420000     -70.64780000
H      -43.92790000     -30.69250000     -70.54950000
H      -45.57230000     -30.21090000     -70.09710000
C      -45.42110000     -34.97120000     -72.66290000
H      -45.02890000     -36.05680000     -72.48210000
H      -46.15270000     -34.76310000     -71.89930000
C      -44.24010000     -34.06250000     -72.67080000
H      -43.65110000     -34.18360000     -73.59510000
H      -44.60920000     -33.02660000     -72.68890000
C      -45.49190000     -32.39560000     -70.13540000
H      -45.93830000     -33.03400000     -70.89890000
H      -46.16430000     -32.26630000     -69.32780000
C      -44.36740000     -33.13180000     -69.42080000
C      -44.14700000     -33.10720000     -68.08670000
C      -43.41880000     -33.98850000     -70.08630000
H      -44.73040000     -32.46050000     -67.42610000
C      -42.43200000     -34.43730000     -69.28730000
C      -43.24530000     -34.40620000     -71.44860000
C      -42.07500000     -35.06290000     -71.61850000
S      -42.62340000     -33.84230000     -67.59320000
S      -41.22510000     -35.31740000     -70.16760000
H      -41.62370000     -35.53440000     -72.50600000
