40
Properties=species:S:1:pos:R:3 #=T CELL(abcABC):=T 1.889726e+02=T 90.00000=T Traj:=T positionsangstrom=T Step:=T 0=T Bead:=T pbc="F F F"
C      -46.14910000     -35.12920000     -75.08160000
C      -46.71330000     -35.52120000     -73.83670000
C      -47.56990000     -34.56600000     -73.24990000
C      -47.94560000     -33.39280000     -73.82020000
C      -47.35310000     -32.99100000     -75.01780000
C      -46.46170000     -33.86670000     -75.63430000
H      -45.55540000     -35.78770000     -75.70940000
H      -47.95630000     -34.82080000     -72.25120000
H      -47.59980000     -32.13050000     -75.61690000
H      -46.09970000     -33.61380000     -76.58900000
C      -48.62950000     -32.26100000     -73.06900000
H      -49.64220000     -32.02850000     -73.47400000
H      -48.00400000     -31.37460000     -73.07900000
C      -46.26580000     -36.75260000     -73.19290000
H      -46.84150000     -36.87270000     -72.26540000
H      -46.18730000     -37.60670000     -73.82260000
S      -49.03560000     -32.70730000     -71.31930000
S      -44.49450000     -36.68180000     -72.78140000
C      -47.64850000     -31.85450000     -70.42970000
H      -47.50410000     -30.89960000     -70.93300000
H      -47.99410000     -31.58860000     -69.42570000
C      -44.13480000     -35.52370000     -71.38560000
H      -43.40650000     -36.09150000     -70.78470000
H      -45.10320000     -35.44810000     -70.81940000
C      -43.60410000     -34.11480000     -71.74680000
H      -42.76030000     -34.40960000     -72.40230000
H      -44.26910000     -33.42460000     -72.31320000
C      -46.34050000     -32.54830000     -70.48400000
H      -46.04980000     -32.48670000     -71.57980000
H      -46.51500000     -33.61310000     -70.32370000
C      -45.18780000     -32.05500000     -69.67710000
C      -45.33840000     -31.05050000     -68.72230000
C      -43.79320000     -32.49420000     -69.70730000
H      -46.29520000     -30.56130000     -68.40470000
C      -42.97660000     -31.91610000     -68.70960000
C      -42.99300000     -33.34290000     -70.58270000
C      -41.67500000     -33.41040000     -70.13480000
S      -43.91550000     -30.73970000     -67.74840000
S      -41.40300000     -32.49160000     -68.65660000
H      -40.89000000     -34.05460000     -70.51800000
