40
Properties=species:S:1:pos:R:3 #=T CELL(abcABC):=T 1.889726e+02=T 90.00000=T Traj:=T positionsangstrom=T Step:=T 0=T Bead:=T pbc="F F F"
C      -43.94690000     -32.41310000     -75.24200000
C      -45.27080000     -32.53090000     -74.85010000
C      -45.83100000     -31.62390000     -73.98760000
C      -45.09390000     -30.59700000     -73.43720000
C      -43.73930000     -30.50360000     -73.80240000
C      -43.17760000     -31.44360000     -74.64570000
H      -43.46120000     -33.09550000     -75.94840000
H      -46.82380000     -31.76680000     -73.62080000
H      -43.16940000     -29.57000000     -73.66400000
H      -42.23090000     -31.21960000     -75.02310000
C      -45.78200000     -29.55000000     -72.56390000
H      -46.80720000     -29.96430000     -72.64980000
H      -45.69120000     -28.47910000     -72.78660000
C      -46.09720000     -33.80480000     -75.31900000
H      -47.14250000     -33.81480000     -75.10690000
H      -45.89210000     -33.90830000     -76.34330000
S      -45.15690000     -29.65730000     -70.84590000
S      -45.29960000     -35.28310000     -74.53170000
C      -44.83960000     -31.47110000     -70.50960000
H      -44.37870000     -31.87900000     -71.44480000
H      -44.04780000     -31.49750000     -69.65020000
C      -45.86120000     -35.12070000     -72.77870000
H      -46.42590000     -36.07340000     -72.55530000
H      -46.58910000     -34.32360000     -72.74430000
C      -44.62580000     -34.89420000     -71.83870000
H      -43.89890000     -35.50390000     -72.29120000
H      -44.31250000     -33.88410000     -71.93410000
C      -46.18450000     -32.18650000     -70.14540000
H      -46.76530000     -32.52640000     -71.05450000
H      -46.84610000     -31.40860000     -69.79590000
C      -46.21650000     -33.30440000     -69.14070000
C      -46.85810000     -33.18540000     -67.89540000
C      -45.59730000     -34.60860000     -69.37930000
H      -47.25290000     -32.24790000     -67.50870000
C      -45.67810000     -35.36150000     -68.19840000
C      -44.91490000     -35.31700000     -70.41840000
C      -44.40510000     -36.51950000     -69.92060000
S      -46.44490000     -34.49170000     -66.82840000
S      -44.85010000     -36.89750000     -68.31450000
H      -43.94580000     -37.21110000     -70.60170000
