40
Properties=species:S:1:pos:R:3 #=T CELL(abcABC):=T 1.889726e+02=T 90.00000=T Traj:=T positionsangstrom=T Step:=T 0=T Bead:=T pbc="F F F"
C      -43.58680000     -32.36420000     -74.65100000
C      -45.01480000     -32.41810000     -74.59250000
C      -45.69500000     -31.42980000     -73.87760000
C      -44.95860000     -30.47160000     -73.08570000
C      -43.56500000     -30.42970000     -73.15750000
C      -42.90070000     -31.38110000     -73.97620000
H      -43.03910000     -33.11730000     -75.24320000
H      -46.71150000     -31.56900000     -73.79270000
H      -43.01990000     -29.63780000     -72.71350000
H      -41.83660000     -31.18900000     -74.01460000
C      -45.76590000     -29.40670000     -72.40390000
H      -46.64610000     -29.23420000     -73.08040000
H      -45.17580000     -28.44180000     -72.41810000
C      -45.74350000     -33.45050000     -75.37620000
H      -46.81210000     -33.17910000     -75.46060000
H      -45.45800000     -33.30580000     -76.48610000
S      -46.51720000     -29.71520000     -70.69990000
S      -45.43620000     -35.16290000     -74.78680000
C      -45.81220000     -31.30970000     -70.04950000
H      -44.85640000     -31.46370000     -70.46150000
H      -45.63470000     -31.15540000     -69.01340000
C      -45.77870000     -35.05460000     -72.95600000
H      -46.13330000     -36.06880000     -72.65820000
H      -46.60220000     -34.36860000     -72.74750000
C      -44.59020000     -34.66710000     -71.99760000
H      -43.64380000     -34.84870000     -72.49250000
H      -44.62200000     -33.55230000     -71.89750000
C      -46.74840000     -32.52830000     -70.29490000
H      -46.67880000     -32.74800000     -71.39360000
H      -47.73610000     -32.11820000     -70.13890000
C      -46.34810000     -33.63220000     -69.36270000
C      -46.80180000     -33.52290000     -68.04830000
C      -45.33630000     -34.69760000     -69.50070000
H      -47.64020000     -32.88540000     -67.81190000
C      -45.28670000     -35.50820000     -68.39070000
C      -44.66770000     -35.31230000     -70.62580000
C      -43.91240000     -36.42000000     -70.27510000
S      -46.25190000     -34.83980000     -67.02530000
S      -44.15340000     -36.84780000     -68.61720000
H      -43.27070000     -37.11440000     -70.82570000
