40
Properties=species:S:1:pos:R:3 #=T CELL(abcABC):=T 1.889726e+02=T 90.00000=T Traj:=T positionsangstrom=T Step:=T 0=T Bead:=T pbc="F F F"
C      -43.66740000     -32.52280000     -74.39610000
C      -45.09150000     -32.50570000     -74.54580000
C      -45.80900000     -31.41780000     -73.92520000
C      -45.21560000     -30.46970000     -73.19810000
C      -43.79640000     -30.51330000     -73.00980000
C      -43.04950000     -31.50180000     -73.60340000
H      -43.08520000     -33.35880000     -74.69070000
H      -46.86700000     -31.37360000     -74.10910000
H      -43.43200000     -29.80080000     -72.35190000
H      -41.97140000     -31.60780000     -73.45900000
C      -45.96130000     -29.36120000     -72.55260000
H      -46.99390000     -29.41120000     -72.83260000
H      -45.51620000     -28.34730000     -72.58030000
C      -45.85950000     -33.58960000     -75.17700000
H      -46.94330000     -33.60590000     -74.84600000
H      -45.78210000     -33.49740000     -76.32440000
S      -45.85690000     -29.58330000     -70.64820000
S      -45.19870000     -35.40980000     -74.77890000
C      -45.35530000     -31.35210000     -70.34860000
H      -44.60950000     -31.60650000     -71.11770000
H      -44.95090000     -31.42850000     -69.31110000
C      -45.59940000     -35.36290000     -72.96440000
H      -45.73670000     -36.45340000     -72.75560000
H      -46.56850000     -34.88760000     -72.82540000
C      -44.53220000     -34.75300000     -72.08480000
H      -43.50670000     -34.94610000     -72.44760000
H      -44.74940000     -33.66260000     -72.14780000
C      -46.50620000     -32.32330000     -70.44080000
H      -46.69160000     -32.63630000     -71.49790000
H      -47.43720000     -31.82060000     -70.17810000
C      -46.23950000     -33.38520000     -69.35020000
C      -46.76870000     -33.31190000     -68.09420000
C      -45.44420000     -34.58890000     -69.54660000
H      -47.37090000     -32.52960000     -67.64250000
C      -45.46410000     -35.37070000     -68.40540000
C      -44.76970000     -35.18950000     -70.64600000
C      -44.25300000     -36.38660000     -70.32110000
S      -46.37310000     -34.70560000     -67.06770000
S      -44.59280000     -36.84050000     -68.65570000
H      -43.67090000     -37.04270000     -70.99070000
