40
Properties=species:S:1:pos:R:3 #=T CELL(abcABC):=T 1.889726e+02=T 90.00000=T Traj:=T positionsangstrom=T Step:=T 0=T Bead:=T pbc="F F F"
C      -43.80750000     -32.31640000     -74.76740000
C      -45.19080000     -32.28780000     -74.53090000
C      -45.78500000     -31.31700000     -73.76900000
C      -44.97170000     -30.42380000     -73.02300000
C      -43.63000000     -30.31390000     -73.35170000
C      -43.02720000     -31.32450000     -74.22680000
H      -43.36760000     -33.07090000     -75.42690000
H      -46.80920000     -31.24790000     -73.82280000
H      -42.92600000     -29.74220000     -72.79310000
H      -41.95590000     -31.27300000     -74.34720000
C      -45.70510000     -29.36110000     -72.19720000
H      -46.32040000     -28.60740000     -72.76460000
H      -44.97560000     -28.65020000     -71.67940000
C      -46.11920000     -33.39150000     -75.11930000
H      -47.07060000     -33.26850000     -74.72000000
H      -46.12040000     -33.52310000     -76.22430000
S      -46.95410000     -30.00810000     -71.04540000
S      -45.54190000     -34.99870000     -74.65430000
C      -46.02140000     -31.29630000     -70.11340000
H      -45.03950000     -31.35860000     -70.57270000
H      -45.93990000     -31.01280000     -69.07330000
C      -45.81960000     -35.17550000     -72.88340000
H      -45.94940000     -36.24440000     -72.63430000
H      -46.78350000     -34.73220000     -72.59680000
C      -44.63540000     -34.67240000     -72.08090000
H      -43.71880000     -34.95000000     -72.61740000
H      -44.55430000     -33.59650000     -72.16160000
C      -46.77780000     -32.66820000     -70.16870000
H      -46.74050000     -32.99700000     -71.20800000
H      -47.79540000     -32.38840000     -69.98770000
C      -46.19690000     -33.69960000     -69.23640000
C      -46.65510000     -33.69170000     -67.94030000
C      -45.27990000     -34.71040000     -69.47930000
H      -47.38120000     -33.14570000     -67.39570000
C      -44.96080000     -35.48660000     -68.37810000
C      -44.52990000     -35.17220000     -70.68190000
C      -43.77320000     -36.18560000     -70.32200000
S      -45.95800000     -34.96390000     -66.95540000
S      -43.73230000     -36.77200000     -68.65660000
H      -43.10380000     -36.63370000     -71.01310000
