40
Properties=species:S:1:pos:R:3 #=T CELL(abcABC):=T 1.889726e+02=T 90.00000=T Traj:=T positionsangstrom=T Step:=T 0=T Bead:=T pbc="F F F"
C      -43.80570000     -32.49340000     -74.50990000
C      -45.19680000     -32.46680000     -74.47560000
C      -45.85130000     -31.40000000     -73.78460000
C      -45.11680000     -30.37870000     -73.17740000
C      -43.68620000     -30.44450000     -73.24910000
C      -43.03130000     -31.48930000     -73.85120000
H      -43.19520000     -33.24700000     -74.94160000
H      -46.98710000     -31.35240000     -73.65350000
H      -43.24100000     -29.61860000     -72.61790000
H      -41.90830000     -31.61040000     -73.88120000
C      -45.86690000     -29.25520000     -72.41510000
H      -46.64240000     -28.74810000     -73.09760000
H      -45.14930000     -28.52840000     -72.00050000
C      -46.04940000     -33.52390000     -75.10450000
H      -47.16320000     -33.48470000     -74.96320000
H      -46.06190000     -33.50680000     -76.12840000
S      -46.85880000     -29.85490000     -70.83020000
S      -45.42330000     -35.15180000     -74.66740000
C      -45.65180000     -31.17020000     -70.26380000
H      -44.84180000     -31.26600000     -70.94230000
H      -45.19640000     -30.82240000     -69.37360000
C      -45.57280000     -35.28820000     -72.80180000
H      -45.24130000     -36.29170000     -72.63140000
H      -46.56800000     -35.10180000     -72.44540000
C      -44.53350000     -34.41050000     -72.02930000
H      -43.59170000     -34.41490000     -72.57850000
H      -44.95130000     -33.40640000     -72.01080000
C      -46.47500000     -32.45130000     -70.15630000
H      -46.56450000     -32.87430000     -71.17970000
H      -47.52020000     -32.04200000     -69.99180000
C      -46.07630000     -33.47280000     -69.15900000
C      -46.66240000     -33.64440000     -67.90310000
C      -45.25710000     -34.53380000     -69.55670000
H      -47.23780000     -32.89700000     -67.42990000
C      -45.10590000     -35.44230000     -68.49340000
C      -44.39420000     -34.95300000     -70.66390000
C      -43.76800000     -36.13810000     -70.40070000
S      -46.13700000     -35.12610000     -67.11180000
S      -44.10290000     -36.82550000     -68.80900000
H      -43.16140000     -36.78100000     -71.04390000
