40
Properties=species:S:1:pos:R:3 #=T CELL(abcABC):=T 1.889726e+02=T 90.00000=T Traj:=T positionsangstrom=T Step:=T 0=T Bead:=T pbc="F F F"
C      -43.74890000     -32.62400000     -74.48290000
C      -45.19100000     -32.55730000     -74.56590000
C      -45.89750000     -31.57690000     -73.85910000
C      -45.17780000     -30.59400000     -73.18100000
C      -43.83050000     -30.64220000     -73.14130000
C      -43.07560000     -31.65420000     -73.77300000
H      -43.30650000     -33.40900000     -74.96430000
H      -46.96860000     -31.68650000     -73.78560000
H      -43.27770000     -29.79900000     -72.78920000
H      -42.00710000     -31.53210000     -73.85140000
C      -45.99520000     -29.50770000     -72.48700000
H      -47.04660000     -29.62860000     -72.76590000
H      -45.75190000     -28.42820000     -72.79800000
C      -45.89590000     -33.63270000     -75.30300000
H      -46.96530000     -33.52880000     -75.01920000
H      -45.79410000     -33.53610000     -76.35550000
S      -45.64990000     -29.36480000     -70.65520000
S      -45.23500000     -35.29720000     -74.78760000
C      -45.33860000     -31.05910000     -70.01670000
H      -44.39320000     -31.35550000     -70.42510000
H      -45.17410000     -30.98750000     -68.96400000
C      -45.51530000     -35.45350000     -72.95520000
H      -45.35210000     -36.50840000     -72.88810000
H      -46.54040000     -35.26670000     -72.54500000
C      -44.52630000     -34.72120000     -72.05060000
H      -43.50070000     -34.88740000     -72.37810000
H      -44.78000000     -33.70320000     -72.07400000
C      -46.37740000     -32.13540000     -70.32720000
H      -46.30050000     -32.39640000     -71.35590000
H      -47.39490000     -31.76740000     -70.08590000
C      -46.26410000     -33.40430000     -69.46030000
C      -46.79130000     -33.35140000     -68.19040000
C      -45.48470000     -34.62740000     -69.62930000
H      -47.39810000     -32.55100000     -67.81490000
C      -45.54410000     -35.39990000     -68.45250000
C      -44.71150000     -35.24400000     -70.64140000
C      -44.14870000     -36.38890000     -70.15120000
S      -46.43000000     -34.74350000     -67.16160000
S      -44.66800000     -36.88170000     -68.54070000
H      -43.57790000     -37.09940000     -70.73260000
