40
Properties=species:S:1:pos:R:3 #=T CELL(abcABC):=T 1.889726e+02=T 90.00000=T Traj:=T positionsangstrom=T Step:=T 0=T Bead:=T pbc="F F F"
C      -43.88280000     -32.31310000     -74.59050000
C      -45.26200000     -32.36600000     -74.42750000
C      -45.86880000     -31.29260000     -73.72440000
C      -45.12490000     -30.26270000     -73.19910000
C      -43.70060000     -30.32080000     -73.20990000
C      -43.10020000     -31.33380000     -73.99480000
H      -43.32680000     -33.12690000     -75.10390000
H      -46.94490000     -31.25330000     -73.46170000
H      -43.10510000     -29.43410000     -72.91430000
H      -42.02370000     -31.42260000     -74.20090000
C      -45.70330000     -29.15660000     -72.39430000
H      -46.33380000     -28.51110000     -72.93720000
H      -44.88200000     -28.57630000     -72.02900000
C      -46.06590000     -33.45320000     -75.07350000
H      -47.19510000     -33.20470000     -74.81230000
H      -46.01710000     -33.38010000     -76.14940000
S      -46.81540000     -29.84890000     -71.05170000
S      -45.44120000     -35.23780000     -74.66480000
C      -45.95690000     -31.23810000     -70.16180000
H      -44.95100000     -31.42500000     -70.62970000
H      -45.79420000     -31.02660000     -69.02310000
C      -45.60820000     -35.17040000     -72.82840000
H      -45.74370000     -36.23820000     -72.53070000
H      -46.56080000     -34.68100000     -72.57510000
C      -44.49510000     -34.47820000     -72.08370000
H      -43.53180000     -34.73240000     -72.54870000
H      -44.60720000     -33.37420000     -72.06410000
C      -46.80280000     -32.51390000     -70.13370000
H      -46.84450000     -32.98290000     -71.10730000
H      -47.79850000     -32.38880000     -69.74220000
C      -46.20520000     -33.64480000     -69.21250000
C      -46.70100000     -33.69390000     -67.91060000
C      -45.31160000     -34.73840000     -69.50600000
H      -47.39000000     -33.10280000     -67.37280000
C      -45.04510000     -35.56230000     -68.38260000
C      -44.40030000     -35.08240000     -70.68130000
C      -43.73240000     -36.19790000     -70.41030000
S      -45.97790000     -35.06760000     -67.00900000
S      -43.93800000     -36.87270000     -68.74000000
H      -42.97740000     -36.58750000     -71.05220000
