40
Properties=species:S:1:pos:R:3 #=T CELL(abcABC):=T 1.889726e+02=T 90.00000=T Traj:=T positionsangstrom=T Step:=T 0=T Bead:=T pbc="F F F"
C      -45.12730000     -34.06880000     -74.81490000
C      -45.30890000     -35.22840000     -74.07610000
C      -44.23680000     -35.81680000     -73.36590000
C      -43.02820000     -35.14460000     -73.30150000
C      -42.86240000     -33.93920000     -73.95860000
C      -43.87260000     -33.38280000     -74.70770000
H      -46.03760000     -33.57700000     -75.26820000
H      -44.54720000     -36.69330000     -72.74350000
H      -41.89780000     -33.45970000     -73.83790000
H      -43.83390000     -32.30250000     -75.09200000
C      -41.93980000     -35.64000000     -72.39020000
H      -41.08090000     -35.07150000     -72.37220000
H      -41.57390000     -36.61530000     -72.64790000
C      -46.55010000     -35.95280000     -74.24630000
H      -47.10700000     -35.71160000     -75.07060000
H      -46.47410000     -37.07380000     -74.23310000
S      -42.56660000     -35.83660000     -70.64180000
S      -47.66890000     -35.81030000     -72.72090000
C      -42.83460000     -34.08830000     -70.09740000
H      -42.36120000     -34.07680000     -69.14620000
H      -42.30200000     -33.38120000     -70.74190000
C      -47.62550000     -33.99050000     -72.20950000
H      -48.54500000     -33.59100000     -72.63490000
H      -46.72020000     -33.47670000     -72.57670000
C      -47.63260000     -33.85330000     -70.70820000
H      -48.66720000     -34.19210000     -70.37600000
H      -46.98670000     -34.61930000     -70.27580000
C      -44.37190000     -33.76700000     -69.93790000
H      -44.71290000     -34.38840000     -69.10500000
H      -44.99710000     -34.08000000     -70.84990000
C      -44.69320000     -32.33500000     -69.55830000
C      -43.84450000     -31.37070000     -69.06260000
C      -46.03770000     -31.85400000     -69.77670000
H      -42.76260000     -31.49140000     -68.83200000
C      -46.15780000     -30.51830000     -69.28540000
C      -47.35270000     -32.46490000     -70.11230000
C      -48.45380000     -31.60550000     -70.02660000
S      -44.65750000     -29.81740000     -68.99790000
S      -47.85640000     -30.04390000     -69.33740000
H      -49.41980000     -31.82340000     -70.49360000
