40
Properties=species:S:1:pos:R:3 #=T CELL(abcABC):=T 1.889726e+02=T 90.00000=T Traj:=T positionsangstrom=T Step:=T 0=T Bead:=T pbc="F F F"
C      -45.84400000     -33.62990000     -68.71740000
C      -47.07700000     -33.35620000     -69.26650000
C      -47.66050000     -34.14100000     -70.31120000
C      -46.90700000     -35.13390000     -70.86840000
C      -45.65320000     -35.43850000     -70.34390000
C      -45.12120000     -34.78320000     -69.19950000
H      -45.42450000     -33.04570000     -67.88550000
H      -48.63230000     -34.08760000     -70.68670000
H      -45.12960000     -36.30840000     -70.78010000
H      -44.08490000     -34.99950000     -68.88260000
C      -47.47260000     -36.11820000     -71.90760000
H      -48.51220000     -36.31260000     -71.57910000
H      -46.89110000     -36.96280000     -72.16770000
C      -47.88840000     -32.19450000     -68.85600000
H      -48.95810000     -32.29090000     -69.20770000
H      -48.03080000     -32.02560000     -67.78170000
S      -47.60420000     -35.21290000     -73.50400000
S      -47.09920000     -30.59330000     -69.43460000
C      -45.95380000     -35.37070000     -74.19700000
H      -45.40310000     -36.20940000     -73.76860000
H      -46.00930000     -35.63750000     -75.25900000
C      -47.05350000     -30.56740000     -71.32790000
H      -46.72350000     -29.52540000     -71.46250000
H      -48.06110000     -30.71530000     -71.59760000
C      -46.06440000     -31.62330000     -71.98920000
H      -46.64060000     -32.54910000     -72.03780000
H      -46.06050000     -31.25340000     -73.00400000
C      -45.20960000     -34.01460000     -74.08810000
H      -46.01600000     -33.40190000     -73.73920000
H      -44.93760000     -33.60350000     -75.02470000
C      -44.12300000     -34.01990000     -73.07450000
C      -42.96640000     -34.76310000     -73.28640000
C      -43.88220000     -33.00830000     -72.08310000
H      -42.81570000     -35.66810000     -73.96860000
C      -42.65030000     -33.09690000     -71.43270000
C      -44.71330000     -31.87690000     -71.51250000
C      -44.06080000     -31.25110000     -70.51920000
S      -41.71360000     -34.40810000     -72.08830000
S      -42.48140000     -31.86430000     -70.15000000
H      -44.45980000     -30.42790000     -69.92310000
