40
Properties=species:S:1:pos:R:3 #=T CELL(abcABC):=T 1.889726e+02=T 90.00000=T Traj:=T positionsangstrom=T Step:=T 0=T Bead:=T pbc="F F F"
C      -41.59510000     -32.13970000     -69.29040000
C      -42.86080000     -32.59900000     -68.85820000
C      -44.03330000     -31.87200000     -69.00530000
C      -43.95200000     -30.69540000     -69.80350000
C      -42.72210000     -30.21750000     -70.25780000
C      -41.52590000     -30.89320000     -69.88200000
H      -40.68410000     -32.75450000     -69.12680000
H      -45.04440000     -32.22220000     -68.76030000
H      -42.58080000     -29.43700000     -70.99550000
H      -40.60490000     -30.53550000     -70.24620000
C      -45.21400000     -29.91130000     -70.06770000
H      -45.09610000     -28.97090000     -69.46910000
H      -46.08540000     -30.40700000     -69.58520000
C      -42.91350000     -33.84720000     -68.10560000
H      -42.15310000     -33.88990000     -67.31870000
H      -43.86050000     -33.84640000     -67.52380000
S      -45.38730000     -29.45400000     -71.82670000
S      -42.76340000     -35.34880000     -69.05100000
C      -46.48300000     -30.78640000     -72.63200000
H      -47.48050000     -30.75980000     -72.27220000
H      -46.48010000     -30.46060000     -73.62820000
C      -44.38350000     -35.69550000     -69.79320000
H      -45.17580000     -35.24630000     -69.18750000
H      -44.51930000     -36.78520000     -69.79440000
C      -44.46920000     -35.14840000     -71.20760000
H      -44.26060000     -34.03430000     -71.25360000
H      -43.66550000     -35.57650000     -71.77400000
C      -45.93440000     -32.12680000     -72.30630000
H      -45.87240000     -32.21970000     -71.16570000
H      -44.94380000     -32.17240000     -72.75380000
C      -46.85620000     -33.23480000     -72.85420000
C      -47.94640000     -32.95150000     -73.60050000
C      -46.73960000     -34.61680000     -72.54440000
H      -48.49420000     -31.99870000     -73.81300000
C      -47.75580000     -35.37770000     -73.17090000
C      -45.74340000     -35.48550000     -71.94890000
C      -46.13450000     -36.82760000     -72.01560000
S      -48.94450000     -34.44510000     -73.97470000
S      -47.63390000     -37.06510000     -73.01620000
H      -45.66510000     -37.69170000     -71.62620000
