40
Properties=species:S:1:pos:R:3 #=T CELL(abcABC):=T 1.889726e+02=T 90.00000=T Traj:=T positionsangstrom=T Step:=T 0=T Bead:=T pbc="F F F"
C      -44.94350000     -34.02200000     -75.03050000
C      -45.34190000     -35.17100000     -74.27010000
C      -44.48120000     -35.73000000     -73.31660000
C      -43.18110000     -35.27690000     -73.25280000
C      -42.80870000     -34.18270000     -74.01860000
C      -43.62760000     -33.54600000     -74.93030000
H      -45.71170000     -33.68290000     -75.74290000
H      -44.77580000     -36.62100000     -72.77320000
H      -41.78490000     -33.89860000     -74.07110000
H      -43.24420000     -32.84450000     -75.65850000
C      -42.16630000     -35.90950000     -72.27430000
H      -41.16370000     -35.33270000     -72.54670000
H      -42.15280000     -37.00680000     -72.43530000
C      -46.77410000     -35.72080000     -74.29020000
H      -47.34370000     -35.15740000     -75.06840000
H      -46.66210000     -36.77990000     -74.59910000
S      -42.65870000     -35.85880000     -70.47940000
S      -47.60240000     -35.77410000     -72.65250000
C      -42.78830000     -34.05790000     -70.18010000
H      -42.07400000     -33.74050000     -69.38970000
H      -42.48110000     -33.51890000     -71.07780000
C      -47.43130000     -33.99800000     -72.18050000
H      -48.27930000     -33.41900000     -72.69330000
H      -46.51950000     -33.61980000     -72.58050000
C      -47.53130000     -33.87820000     -70.67470000
H      -48.43960000     -34.23110000     -70.34160000
H      -46.66520000     -34.46390000     -70.30690000
C      -44.23820000     -33.70380000     -69.81920000
H      -44.60260000     -34.14860000     -69.02020000
H      -44.79810000     -34.14480000     -70.68170000
C      -44.64360000     -32.25400000     -69.71970000
C      -43.86840000     -31.34340000     -69.07590000
C      -46.06380000     -31.88350000     -69.76490000
H      -42.80850000     -31.49950000     -68.73060000
C      -46.14670000     -30.52040000     -69.40860000
C      -47.30990000     -32.41200000     -70.19320000
C      -48.35480000     -31.51800000     -69.97690000
S      -44.72260000     -29.84500000     -68.76250000
S      -47.88910000     -29.97920000     -69.47800000
H      -49.33080000     -31.86180000     -70.10830000
