40
Properties=species:S:1:pos:R:3 #=T CELL(abcABC):=T 1.889726e+02=T 90.00000=T Traj:=T positionsangstrom=T Step:=T 0=T Bead:=T pbc="F F F"
C      -41.67390000     -32.27090000     -69.14960000
C      -42.95770000     -32.71390000     -68.77700000
C      -44.13520000     -31.91520000     -69.08280000
C      -43.89910000     -30.66970000     -69.73120000
C      -42.59800000     -30.33360000     -70.11380000
C      -41.51400000     -31.18680000     -69.98290000
H      -40.81550000     -32.86040000     -68.93580000
H      -45.07540000     -32.33770000     -68.85660000
H      -42.40750000     -29.37720000     -70.61210000
H      -40.51320000     -31.01070000     -70.35570000
C      -45.03660000     -29.75960000     -69.99740000
H      -44.90310000     -28.81280000     -69.49200000
H      -45.98140000     -30.20960000     -69.67690000
C      -43.15100000     -33.95170000     -67.97980000
H      -42.39670000     -33.91790000     -67.24380000
H      -44.17320000     -34.07990000     -67.68410000
S      -45.31410000     -29.45660000     -71.84250000
S      -42.73160000     -35.53960000     -69.09680000
C      -46.45700000     -30.70810000     -72.50640000
H      -47.37050000     -30.70760000     -71.98940000
H      -46.67980000     -30.46530000     -73.55900000
C      -44.36080000     -35.79970000     -69.93320000
H      -45.06540000     -35.34600000     -69.23520000
H      -44.69680000     -36.81540000     -70.00940000
C      -44.43360000     -35.09300000     -71.32210000
H      -44.33330000     -34.07710000     -71.16660000
H      -43.62280000     -35.49580000     -71.93900000
C      -45.78950000     -32.09070000     -72.48020000
H      -45.40200000     -32.34080000     -71.52850000
H      -44.86200000     -32.06800000     -73.13440000
C      -46.79060000     -33.17390000     -72.92800000
C      -47.93170000     -32.86600000     -73.61320000
C      -46.64170000     -34.61600000     -72.80520000
H      -48.19920000     -31.88350000     -73.97930000
C      -47.75000000     -35.26110000     -73.31950000
C      -45.73960000     -35.48460000     -72.04690000
C      -46.20730000     -36.78310000     -71.98660000
S      -49.00050000     -34.25300000     -73.92760000
S      -47.76720000     -36.95620000     -72.83130000
H      -45.81580000     -37.63190000     -71.41350000
