40
Properties=species:S:1:pos:R:3 #=T CELL(abcABC):=T 1.889726e+02=T 90.00000=T Traj:=T positionsangstrom=T Step:=T 0=T Bead:=T pbc="F F F"
C      -44.07220000     -32.17300000     -74.94830000
C      -45.43570000     -32.48610000     -74.64700000
C      -46.04790000     -31.59270000     -73.76940000
C      -45.40140000     -30.61370000     -73.10460000
C      -44.08150000     -30.33970000     -73.39140000
C      -43.40960000     -31.17950000     -74.33220000
H      -43.58210000     -32.81790000     -75.60450000
H      -47.19220000     -31.64990000     -73.62500000
H      -43.49510000     -29.65330000     -72.76470000
H      -42.37950000     -30.95530000     -74.51310000
C      -46.03960000     -29.63360000     -72.17990000
H      -46.49010000     -28.81970000     -72.76180000
H      -45.23510000     -29.16050000     -71.71410000
C      -46.14340000     -33.72220000     -75.17010000
H      -47.18620000     -33.78360000     -74.73340000
H      -46.17660000     -33.60300000     -76.26880000
S      -47.34390000     -30.31640000     -71.07940000
S      -45.20660000     -35.19250000     -74.77950000
C      -46.38000000     -31.62250000     -70.06520000
H      -45.48550000     -31.81220000     -70.67500000
H      -46.17070000     -31.06100000     -69.13180000
C      -45.50220000     -35.46000000     -73.00870000
H      -45.02850000     -36.43010000     -72.73540000
H      -46.54480000     -35.49520000     -72.75710000
C      -44.96520000     -34.27990000     -72.08970000
H      -44.15260000     -33.76300000     -72.59800000
H      -45.78400000     -33.56980000     -71.99440000
C      -47.22130000     -32.87680000     -69.74530000
H      -47.50660000     -33.44050000     -70.60120000
H      -48.06750000     -32.44850000     -69.16560000
C      -46.35480000     -33.79920000     -68.89950000
C      -46.45310000     -33.80080000     -67.52890000
C      -45.25720000     -34.55610000     -69.34410000
H      -47.35860000     -33.34690000     -66.99440000
C      -44.63370000     -35.27020000     -68.33770000
C      -44.55850000     -34.77480000     -70.70130000
C      -43.43430000     -35.55360000     -70.58520000
S      -45.28680000     -34.91770000     -66.74560000
S      -43.28020000     -36.18320000     -68.89410000
H      -42.85950000     -36.00310000     -71.47150000
