40
Properties=species:S:1:pos:R:3 #=T CELL(abcABC):=T 1.889726e+02=T 90.00000=T Traj:=T positionsangstrom=T Step:=T 0=T Bead:=T pbc="F F F"
C      -41.76480000     -32.16330000     -69.96870000
C      -42.85930000     -32.44790000     -69.06300000
C      -44.05580000     -31.67120000     -69.24490000
C      -44.11010000     -30.53810000     -70.06480000
C      -43.05180000     -30.27300000     -70.91090000
C      -41.95130000     -31.13390000     -70.85020000
H      -40.92890000     -32.88600000     -70.03260000
H      -44.90990000     -31.83540000     -68.47900000
H      -43.00860000     -29.53410000     -71.68740000
H      -41.14360000     -30.89920000     -71.54970000
C      -45.28020000     -29.62860000     -70.08630000
H      -44.98440000     -28.65860000     -69.75420000
H      -46.06860000     -30.03520000     -69.39970000
C      -42.77150000     -33.55640000     -68.11820000
H      -41.85890000     -33.48970000     -67.46900000
H      -43.71120000     -33.57470000     -67.52280000
S      -45.91980000     -29.37080000     -71.83860000
S      -42.56960000     -35.20070000     -68.94580000
C      -46.99170000     -30.84200000     -72.06710000
H      -47.86390000     -30.74620000     -71.35210000
H      -47.40150000     -30.78140000     -73.06660000
C      -44.18350000     -35.37880000     -69.86770000
H      -44.99110000     -34.87790000     -69.39410000
H      -44.40320000     -36.42910000     -69.84970000
C      -44.13350000     -34.92240000     -71.31760000
H      -44.05170000     -33.80070000     -71.40590000
H      -43.13500000     -35.17790000     -71.71280000
C      -46.25760000     -32.15350000     -71.85510000
H      -46.01070000     -32.13850000     -70.82210000
H      -45.35620000     -32.05570000     -72.43000000
C      -47.07700000     -33.36890000     -72.29730000
C      -48.40280000     -33.31320000     -72.61060000
C      -46.61640000     -34.70930000     -72.45230000
H      -49.18460000     -32.52960000     -72.54670000
C      -47.56200000     -35.62510000     -72.98570000
C      -45.31270000     -35.42480000     -72.23450000
C      -45.35940000     -36.70430000     -72.76230000
S      -49.13360000     -34.85570000     -73.08940000
S      -46.89560000     -37.16520000     -73.44070000
H      -44.64390000     -37.47830000     -72.60900000
