40
Properties=species:S:1:pos:R:3 #=T CELL(abcABC):=T 1.889726e+02=T 90.00000=T Traj:=T positionsangstrom=T Step:=T 0=T Bead:=T pbc="F F F"
C      -41.61670000     -32.16160000     -69.66540000
C      -42.77000000     -32.45980000     -68.92120000
C      -43.89550000     -31.63680000     -69.05000000
C      -43.90740000     -30.51330000     -69.99380000
C      -42.71230000     -30.20460000     -70.69280000
C      -41.56170000     -30.97390000     -70.43830000
H      -40.78060000     -32.81280000     -69.62280000
H      -44.77580000     -31.87640000     -68.40400000
H      -42.64910000     -29.30370000     -71.28990000
H      -40.63340000     -30.79220000     -70.96360000
C      -45.17670000     -29.65870000     -70.06420000
H      -45.04920000     -28.69750000     -69.58120000
H      -45.98200000     -30.24770000     -69.52360000
C      -42.80940000     -33.65470000     -68.03610000
H      -42.03320000     -33.65670000     -67.24560000
H      -43.89060000     -33.70360000     -67.63240000
S      -45.67180000     -29.41960000     -71.81750000
S      -42.71950000     -35.18550000     -69.10650000
C      -46.86060000     -30.84820000     -72.00800000
H      -47.55020000     -30.87050000     -71.09810000
H      -47.48380000     -30.72320000     -72.97740000
C      -44.36010000     -35.20700000     -69.89990000
H      -45.12320000     -34.60820000     -69.31750000
H      -44.62030000     -36.22200000     -69.71460000
C      -44.36800000     -34.86490000     -71.36780000
H      -44.36890000     -33.77380000     -71.47160000
H      -43.52040000     -35.37570000     -71.80020000
C      -46.13280000     -32.26600000     -72.04260000
H      -45.73340000     -32.39400000     -71.00340000
H      -45.26830000     -32.17190000     -72.66310000
C      -47.14510000     -33.35710000     -72.54790000
C      -48.36660000     -33.21630000     -73.13580000
C      -46.73730000     -34.74560000     -72.55570000
H      -48.95570000     -32.27590000     -73.27660000
C      -47.57520000     -35.60080000     -73.22250000
C      -45.62050000     -35.45240000     -71.99140000
C      -45.81380000     -36.83660000     -72.15530000
S      -48.98070000     -34.72990000     -73.77740000
S      -47.26540000     -37.32640000     -73.03370000
H      -45.17330000     -37.57270000     -71.65520000
