40
Properties=species:S:1:pos:R:3 #=T CELL(abcABC):=T 1.889726e+02=T 90.00000=T Traj:=T positionsangstrom=T Step:=T 0=T Bead:=T pbc="F F F"
C      -41.77210000     -32.19440000     -69.79970000
C      -42.94050000     -32.51130000     -69.09040000
C      -44.05680000     -31.68850000     -69.20300000
C      -44.06930000     -30.55760000     -70.07190000
C      -42.90830000     -30.21430000     -70.77460000
C      -41.77150000     -31.00440000     -70.57190000
H      -40.83540000     -32.68760000     -69.63590000
H      -44.95860000     -31.87500000     -68.71030000
H      -42.88980000     -29.27090000     -71.39880000
H      -40.78910000     -30.85950000     -71.08460000
C      -45.28500000     -29.63940000     -70.04750000
H      -44.96710000     -28.69380000     -69.58260000
H      -46.11880000     -30.02350000     -69.44050000
C      -42.81890000     -33.59000000     -68.07720000
H      -41.98140000     -33.47600000     -67.35950000
H      -43.73920000     -33.63650000     -67.45590000
S      -45.91250000     -29.36240000     -71.84290000
S      -42.68360000     -35.17890000     -69.03350000
C      -46.90820000     -30.86720000     -72.18040000
H      -47.72750000     -30.89560000     -71.50940000
H      -47.23520000     -30.75070000     -73.23810000
C      -44.40350000     -35.21680000     -69.92970000
H      -45.00520000     -34.47700000     -69.39770000
H      -44.85980000     -36.16980000     -69.78010000
C      -44.11880000     -34.92590000     -71.45480000
H      -43.90140000     -33.88810000     -71.63800000
H      -43.30260000     -35.61690000     -71.60080000
C      -46.15160000     -32.20790000     -72.11370000
H      -45.73890000     -32.38760000     -71.11180000
H      -45.26710000     -32.08470000     -72.72050000
C      -47.01590000     -33.36850000     -72.57020000
C      -48.37280000     -33.22130000     -72.89480000
C      -46.52670000     -34.70960000     -72.64900000
H      -49.04920000     -32.43150000     -72.66870000
C      -47.52290000     -35.59080000     -73.00040000
C      -45.31140000     -35.41990000     -72.28560000
C      -45.43550000     -36.78320000     -72.54080000
S      -49.05110000     -34.86370000     -73.19360000
S      -47.02090000     -37.24430000     -73.07370000
H      -44.72750000     -37.61180000     -72.24830000
