40
Properties=species:S:1:pos:R:3 #=T CELL(abcABC):=T 1.889726e+02=T 90.00000=T Traj:=T positionsangstrom=T Step:=T 0=T Bead:=T pbc="F F F"
C      -49.81980000     -33.62370000     -72.11650000
C      -48.57150000     -33.72270000     -72.80600000
C      -47.73210000     -32.63210000     -72.89250000
C      -48.09210000     -31.44600000     -72.11610000
C      -49.13780000     -31.51610000     -71.23330000
C      -50.06800000     -32.54200000     -71.28680000
H      -50.49350000     -34.42110000     -72.10930000
H      -46.79010000     -32.70240000     -73.52380000
H      -49.27060000     -30.71010000     -70.49750000
H      -50.93740000     -32.54860000     -70.64380000
C      -47.25070000     -30.22480000     -72.15540000
H      -47.38800000     -29.61340000     -71.26460000
H      -47.65280000     -29.59830000     -73.03070000
C      -48.26240000     -34.92740000     -73.61910000
H      -48.66330000     -35.82640000     -73.21380000
H      -48.83480000     -34.79500000     -74.51530000
S      -45.40210000     -30.47770000     -72.54030000
S      -46.50280000     -35.17690000     -74.12600000
C      -44.79010000     -30.80300000     -70.80110000
H      -43.75680000     -30.81960000     -70.94590000
H      -45.06450000     -29.98290000     -70.20300000
C      -45.47250000     -35.00370000     -72.56290000
H      -45.20650000     -36.00950000     -72.14910000
H      -46.21080000     -34.65400000     -71.88210000
C      -44.30790000     -34.08190000     -72.64670000
H      -43.68630000     -34.22720000     -73.53410000
H      -44.64040000     -33.04320000     -72.64140000
C      -45.22100000     -32.09620000     -70.07790000
H      -45.70790000     -32.91620000     -70.62060000
H      -46.00550000     -31.97950000     -69.32200000
C      -44.01850000     -32.84710000     -69.44330000
C      -43.68520000     -32.70230000     -68.13800000
C      -43.37390000     -33.91790000     -70.17460000
H      -44.20300000     -32.01050000     -67.40470000
C      -42.41410000     -34.51150000     -69.39380000
C      -43.36880000     -34.41830000     -71.50000000
C      -42.43880000     -35.39930000     -71.68790000
S      -42.37010000     -33.92470000     -67.70440000
S      -41.60130000     -35.89820000     -70.13800000
H      -42.38190000     -36.02090000     -72.60310000
