40
Properties=species:S:1:pos:R:3 #=T CELL(abcABC):=T 1.889726e+02=T 90.00000=T Traj:=T positionsangstrom=T Step:=T 0=T Bead:=T pbc="F F F"
C      -47.52280000     -36.31570000     -71.35770000
C      -46.35500000     -36.74960000     -70.75500000
C      -45.90060000     -36.08620000     -69.60080000
C      -46.69900000     -35.20570000     -68.83740000
C      -47.96570000     -34.90890000     -69.47940000
C      -48.36840000     -35.40700000     -70.69970000
H      -47.89430000     -36.81630000     -72.28530000
H      -44.95330000     -36.54000000     -69.24830000
H      -48.75580000     -34.29790000     -68.99530000
H      -49.26750000     -35.04020000     -71.23770000
C      -46.12980000     -34.48440000     -67.60430000
H      -45.07680000     -34.59450000     -67.62300000
H      -46.62980000     -34.71150000     -66.65990000
C      -45.53400000     -37.80010000     -71.44840000
H      -45.25120000     -38.57450000     -70.74920000
H      -46.03350000     -38.28740000     -72.33160000
S      -46.31020000     -32.56910000     -67.69170000
S      -43.90880000     -37.03290000     -72.21990000
C      -45.93790000     -32.26710000     -69.47400000
H      -46.32620000     -33.08780000     -70.14790000
H      -46.36100000     -31.29370000     -69.65780000
C      -44.32890000     -35.40750000     -73.13470000
H      -45.29090000     -35.52620000     -73.57890000
H      -43.52900000     -35.34930000     -73.90040000
C      -44.26960000     -34.20530000     -72.22050000
H      -45.04960000     -34.38910000     -71.41130000
H      -43.28170000     -34.17150000     -71.72250000
C      -44.39210000     -32.02040000     -69.69340000
H      -43.76570000     -32.94410000     -69.64700000
H      -44.01080000     -31.45060000     -68.86800000
C      -44.25820000     -31.11460000     -70.90930000
C      -44.32530000     -29.73710000     -70.84690000
C      -44.38140000     -31.57070000     -72.27940000
H      -44.29250000     -29.13380000     -69.91820000
C      -44.53570000     -30.56510000     -73.22060000
C      -44.49480000     -32.85240000     -72.94350000
C      -44.61100000     -32.79570000     -74.30120000
S      -44.48070000     -29.00880000     -72.44850000
S      -44.69670000     -31.08780000     -74.87930000
H      -44.64860000     -33.68800000     -74.90470000
