40
Properties=species:S:1:pos:R:3 #=T CELL(abcABC):=T 1.889726e+02=T 90.00000=T Traj:=T positionsangstrom=T Step:=T 0=T Bead:=T pbc="F F F"
C      -47.52910000     -36.33350000     -71.36090000
C      -46.32500000     -36.71820000     -70.75690000
C      -46.01420000     -36.16260000     -69.49920000
C      -46.78660000     -35.12770000     -68.91860000
C      -47.85820000     -34.70480000     -69.62970000
C      -48.24640000     -35.35720000     -70.82100000
H      -47.86020000     -36.81490000     -72.25550000
H      -45.02970000     -36.32370000     -69.06220000
H      -48.55900000     -33.95860000     -69.26670000
H      -49.10860000     -35.03660000     -71.36480000
C      -46.19820000     -34.49430000     -67.60890000
H      -45.20890000     -35.00670000     -67.32120000
H      -46.77680000     -34.82140000     -66.76640000
C      -45.48060000     -37.80720000     -71.34560000
H      -45.07020000     -38.36520000     -70.52240000
H      -46.03290000     -38.46180000     -72.05750000
S      -46.20110000     -32.69570000     -67.69730000
S      -43.95320000     -37.13190000     -72.31820000
C      -45.69130000     -31.96420000     -69.35890000
H      -46.29420000     -32.47560000     -70.05360000
H      -46.12140000     -30.96830000     -69.31020000
C      -44.54790000     -35.52110000     -73.09570000
H      -45.62490000     -35.53710000     -73.28930000
H      -44.08830000     -35.37050000     -74.11260000
C      -44.10730000     -34.28590000     -72.28460000
H      -44.62930000     -34.23060000     -71.35730000
H      -43.05170000     -34.32220000     -72.04100000
C      -44.17650000     -31.93790000     -69.68350000
H      -43.90760000     -32.94040000     -69.92020000
H      -43.71070000     -31.49390000     -68.81010000
C      -44.11960000     -31.07500000     -70.90660000
C      -44.39240000     -29.72940000     -70.85350000
C      -44.26180000     -31.57510000     -72.26780000
H      -44.41170000     -29.11150000     -69.98810000
C      -44.55540000     -30.55550000     -73.16620000
C      -44.33310000     -32.85840000     -72.96770000
C      -44.50080000     -32.71290000     -74.31740000
S      -44.76270000     -28.99600000     -72.39270000
S      -44.83480000     -31.12510000     -74.83040000
H      -44.18050000     -33.52000000     -74.98300000
