40
Properties=species:S:1:pos:R:3 #=T CELL(abcABC):=T 1.889726e+02=T 90.00000=T Traj:=T positionsangstrom=T Step:=T 0=T Bead:=T pbc="F F F"
C      -47.88870000     -36.19970000     -71.03900000
C      -46.49990000     -36.57150000     -70.81310000
C      -45.87740000     -36.00460000     -69.69750000
C      -46.62770000     -35.33700000     -68.69250000
C      -48.00180000     -35.28630000     -68.76790000
C      -48.66000000     -35.73860000     -69.99810000
H      -48.38690000     -36.47740000     -71.95060000
H      -44.83870000     -36.12520000     -69.50750000
H      -48.50650000     -34.98690000     -67.82330000
H      -49.75990000     -35.65630000     -70.06980000
C      -45.87210000     -34.90730000     -67.45490000
H      -44.96380000     -35.52710000     -67.32460000
H      -46.47450000     -35.10650000     -66.57010000
C      -45.65950000     -37.14240000     -71.88390000
H      -45.55540000     -38.21910000     -71.85170000
H      -45.92000000     -36.79200000     -72.89320000
S      -45.26610000     -33.15070000     -67.44050000
S      -43.88270000     -36.59970000     -71.96130000
C      -45.70680000     -32.36890000     -69.09610000
H      -46.58290000     -32.94060000     -69.49060000
H      -46.16430000     -31.40130000     -68.80810000
C      -43.82300000     -34.83490000     -72.46170000
H      -42.97690000     -34.73070000     -73.12630000
H      -43.58880000     -34.24880000     -71.54130000
C      -45.12170000     -34.29040000     -72.97760000
H      -45.57220000     -34.81610000     -73.77460000
H      -45.74020000     -34.25070000     -72.05640000
C      -44.56960000     -32.33210000     -70.06500000
H      -44.50990000     -33.32870000     -70.44270000
H      -43.62090000     -32.29280000     -69.53740000
C      -44.61450000     -31.27100000     -71.19610000
C      -44.48690000     -29.89280000     -71.02260000
C      -44.81150000     -31.64730000     -72.60770000
H      -44.10770000     -29.39670000     -70.11480000
C      -44.72840000     -30.53050000     -73.38070000
C      -45.01220000     -32.82160000     -73.39530000
C      -44.96040000     -32.56710000     -74.74550000
S      -44.41770000     -29.00220000     -72.57850000
S      -44.68430000     -30.86390000     -75.08970000
H      -44.89450000     -33.22420000     -75.57080000
