40
Properties=species:S:1:pos:R:3 #=T CELL(abcABC):=T 1.889726e+02=T 90.00000=T Traj:=T positionsangstrom=T Step:=T 0=T Bead:=T pbc="F F F"
C      -47.20430000     -37.00820000     -74.15670000
C      -46.54160000     -36.25550000     -73.20490000
C      -46.88390000     -34.85360000     -73.09310000
C      -47.99970000     -34.32170000     -73.66740000
C      -48.70550000     -35.17210000     -74.60650000
C      -48.24650000     -36.39320000     -74.91230000
H      -46.93510000     -37.99970000     -74.25620000
H      -46.41860000     -34.29190000     -72.28690000
H      -49.52430000     -34.71410000     -75.23970000
H      -48.77260000     -36.89890000     -75.74350000
C      -48.44310000     -32.90650000     -73.32980000
H      -49.35230000     -32.85470000     -72.73830000
H      -48.61050000     -32.26560000     -74.26360000
C      -45.48770000     -36.92560000     -72.40780000
H      -45.64400000     -36.95790000     -71.29080000
H      -45.46720000     -37.89050000     -72.73220000
S      -47.30720000     -31.99400000     -72.13640000
S      -43.80370000     -36.06240000     -72.52820000
C      -45.82340000     -31.47310000     -73.06850000
H      -45.99920000     -31.88370000     -74.08690000
H      -45.70050000     -30.41880000     -73.34580000
C      -43.91970000     -35.10720000     -70.95810000
H      -44.24990000     -35.86240000     -70.19440000
H      -44.60450000     -34.24550000     -71.07420000
C      -42.57900000     -34.37080000     -70.60390000
H      -41.85330000     -35.09180000     -70.35460000
H      -42.23610000     -33.83570000     -71.48210000
C      -44.50230000     -31.96420000     -72.40740000
H      -43.68750000     -31.59820000     -72.94400000
H      -44.58120000     -33.05650000     -72.57980000
C      -44.47380000     -31.46520000     -70.90380000
C      -45.15290000     -30.33600000     -70.51440000
C      -43.74390000     -32.05530000     -69.79790000
H      -45.88610000     -29.86480000     -71.05780000
C      -44.05990000     -31.43320000     -68.59470000
C      -42.96260000     -33.28460000     -69.52360000
C      -42.79390000     -33.45300000     -68.13220000
S      -44.95840000     -29.87280000     -68.84860000
S      -43.46460000     -32.21950000     -67.11910000
H      -42.31510000     -34.36380000     -67.75570000
