40
Properties=species:S:1:pos:R:3 #=T CELL(abcABC):=T 1.889726e+02=T 90.00000=T Traj:=T positionsangstrom=T Step:=T 0=T Bead:=T pbc="F F F"
C      -41.91080000     -30.66220000     -70.85530000
C      -42.75460000     -31.26940000     -69.92620000
C      -44.12150000     -30.98550000     -70.03830000
C      -44.65020000     -30.07010000     -71.02000000
C      -43.73610000     -29.45670000     -71.96560000
C      -42.34940000     -29.72930000     -71.84000000
H      -40.90950000     -30.95290000     -70.78940000
H      -44.78110000     -31.40830000     -69.31010000
H      -44.10630000     -28.89300000     -72.85610000
H      -41.66380000     -29.26630000     -72.58300000
C      -46.11790000     -29.84670000     -71.21080000
H      -46.16240000     -29.18470000     -72.08220000
H      -46.52400000     -29.32730000     -70.31340000
C      -42.11910000     -32.35130000     -69.09170000
H      -41.19050000     -32.03180000     -68.68510000
H      -42.60540000     -32.52450000     -68.12880000
S      -47.10870000     -31.38920000     -71.59300000
S      -41.75310000     -33.93480000     -70.09090000
C      -47.62490000     -32.12370000     -70.02510000
H      -47.27620000     -31.33360000     -69.31420000
H      -48.74870000     -32.15790000     -69.93600000
C      -43.35860000     -34.67390000     -70.39420000
H      -43.93280000     -34.55200000     -69.45490000
H      -43.20710000     -35.69880000     -70.65820000
C      -44.18580000     -33.88460000     -71.54500000
H      -44.75220000     -33.05660000     -71.07550000
H      -43.50370000     -33.45310000     -72.27560000
C      -46.95860000     -33.44980000     -69.70320000
H      -47.25940000     -33.74460000     -68.69420000
H      -45.92740000     -33.17650000     -69.54940000
C      -47.28640000     -34.53710000     -70.66820000
C      -48.48220000     -35.23450000     -70.50330000
C      -46.44500000     -35.12160000     -71.71770000
H      -49.27070000     -35.00460000     -69.86530000
C      -47.19060000     -36.01560000     -72.53030000
C      -45.17380000     -34.81320000     -72.26370000
C      -44.95870000     -35.51800000     -73.37420000
S      -48.71860000     -36.35050000     -71.85620000
S      -46.24120000     -36.63570000     -73.85810000
H      -43.95790000     -35.51190000     -73.85570000
