40
Properties=species:S:1:pos:R:3 #=T CELL(abcABC):=T 1.889726e+02=T 90.00000=T Traj:=T positionsangstrom=T Step:=T 0=T Bead:=T pbc="F F F"
C      -47.02510000     -37.09990000     -70.85180000
C      -45.78530000     -36.58740000     -70.44640000
C      -45.69180000     -35.84910000     -69.26540000
C      -46.90790000     -35.54380000     -68.56390000
C      -48.14220000     -36.06070000     -68.96850000
C      -48.21150000     -36.89650000     -70.14830000
H      -47.05180000     -37.79060000     -71.70020000
H      -44.67500000     -35.51690000     -68.98400000
H      -49.05710000     -35.74190000     -68.53080000
H      -49.20290000     -37.19750000     -70.51940000
C      -46.71510000     -34.53430000     -67.48480000
H      -45.59970000     -34.40850000     -67.31800000
H      -47.22560000     -34.81350000     -66.59950000
C      -44.50380000     -37.01380000     -71.21720000
H      -44.19520000     -37.95180000     -70.66980000
H      -44.65460000     -37.32170000     -72.23950000
S      -47.22160000     -32.85480000     -68.13800000
S      -43.06550000     -35.74380000     -71.05990000
C      -46.62750000     -32.64820000     -69.92020000
H      -46.94720000     -33.54590000     -70.45730000
H      -47.28990000     -31.81380000     -70.24540000
C      -43.15610000     -34.72960000     -72.57280000
H      -42.64080000     -35.19490000     -73.42170000
H      -42.65570000     -33.73630000     -72.38570000
C      -44.64480000     -34.28400000     -73.03620000
H      -45.03610000     -34.98520000     -73.75370000
H      -45.25740000     -34.26460000     -72.15750000
C      -45.15710000     -32.25520000     -70.06530000
H      -44.54760000     -33.15710000     -69.95080000
H      -44.95350000     -31.63980000     -69.19970000
C      -44.89660000     -31.35420000     -71.27120000
C      -44.83550000     -29.99990000     -71.07890000
C      -44.72690000     -31.72020000     -72.67880000
H      -44.93940000     -29.46720000     -70.18010000
C      -44.64210000     -30.57050000     -73.49380000
C      -44.54630000     -32.88670000     -73.53180000
C      -44.36320000     -32.57800000     -74.88000000
S      -44.56050000     -29.05020000     -72.53920000
S      -44.34480000     -30.82060000     -75.21790000
H      -44.20380000     -33.29140000     -75.64910000
