40
Properties=species:S:1:pos:R:3 #=T CELL(abcABC):=T 1.889726e+02=T 90.00000=T Traj:=T positionsangstrom=T Step:=T 0=T Bead:=T pbc="F F F"
C      -47.69580000     -36.43910000     -71.28410000
C      -46.36440000     -36.69760000     -70.91170000
C      -45.87760000     -36.10490000     -69.75740000
C      -46.58180000     -35.25410000     -68.92100000
C      -47.92400000     -34.99690000     -69.35950000
C      -48.43860000     -35.55210000     -70.47860000
H      -48.03120000     -36.89000000     -72.23560000
H      -44.82280000     -36.30340000     -69.64170000
H      -48.64430000     -34.29990000     -68.83780000
H      -49.51050000     -35.43210000     -70.77910000
C      -46.08660000     -34.60920000     -67.63310000
H      -45.02900000     -34.76230000     -67.56790000
H      -46.53430000     -35.14550000     -66.72650000
C      -45.35000000     -37.59280000     -71.70120000
H      -45.14420000     -38.55370000     -71.22320000
H      -45.72300000     -37.86740000     -72.68080000
S      -46.60760000     -32.81770000     -67.74220000
S      -43.62480000     -36.86390000     -72.02970000
C      -46.17670000     -32.14930000     -69.41330000
H      -46.46430000     -32.81030000     -70.26350000
H      -46.83300000     -31.29490000     -69.64940000
C      -44.24840000     -35.38540000     -72.99130000
H      -45.20990000     -35.70700000     -73.48040000
H      -43.56760000     -35.29690000     -73.84100000
C      -44.57250000     -34.14670000     -72.17700000
H      -45.43980000     -34.33630000     -71.54740000
H      -43.74790000     -34.14330000     -71.45370000
C      -44.62940000     -31.82510000     -69.61070000
H      -44.07750000     -32.78040000     -69.59900000
H      -44.21640000     -31.20270000     -68.83430000
C      -44.42770000     -31.05510000     -70.92170000
C      -44.22620000     -29.67710000     -70.91290000
C      -44.57890000     -31.55400000     -72.26150000
H      -44.24320000     -28.98110000     -70.00300000
C      -44.50530000     -30.54510000     -73.24720000
C      -44.63380000     -32.80700000     -72.89270000
C      -44.70230000     -32.76580000     -74.27760000
S      -44.10360000     -28.99900000     -72.57290000
S      -44.62090000     -31.16050000     -74.90370000
H      -45.12640000     -33.55950000     -74.87480000
