40
Properties=species:S:1:pos:R:3 #=T CELL(abcABC):=T 1.889726e+02=T 90.00000=T Traj:=T positionsangstrom=T Step:=T 0=T Bead:=T pbc="F F F"
C      -41.70560000     -30.66370000     -70.86940000
C      -42.61600000     -31.35040000     -70.10300000
C      -43.97830000     -31.08180000     -70.25370000
C      -44.48050000     -30.09030000     -71.08420000
C      -43.56490000     -29.39070000     -71.87450000
C      -42.19050000     -29.70150000     -71.75670000
H      -40.65670000     -30.85430000     -70.73600000
H      -44.56530000     -31.70950000     -69.71430000
H      -43.93220000     -28.64880000     -72.58270000
H      -41.49460000     -29.08310000     -72.38000000
C      -45.96650000     -29.79790000     -71.03210000
H      -46.30250000     -28.96260000     -71.70100000
H      -46.22170000     -29.54660000     -70.00340000
C      -42.28510000     -32.44750000     -69.06620000
H      -41.31780000     -32.11540000     -68.64190000
H      -43.10120000     -32.70940000     -68.36530000
S      -47.25320000     -31.18980000     -71.44790000
S      -41.78010000     -33.99230000     -69.91410000
C      -47.62700000     -32.08890000     -69.90420000
H      -47.37750000     -31.51440000     -69.00820000
H      -48.65400000     -32.24710000     -69.99600000
C      -43.38530000     -34.70910000     -70.48820000
H      -44.12220000     -34.74260000     -69.61910000
H      -43.17820000     -35.70880000     -70.72570000
C      -43.92450000     -34.02540000     -71.80200000
H      -44.16980000     -32.93410000     -71.62040000
H      -43.18550000     -34.14590000     -72.56750000
C      -46.99740000     -33.47640000     -69.71280000
H      -47.37840000     -33.90200000     -68.80970000
H      -45.92040000     -33.34930000     -69.70670000
C      -47.37020000     -34.55370000     -70.74470000
C      -48.61640000     -35.18470000     -70.66040000
C      -46.49340000     -35.10130000     -71.76080000
H      -49.35020000     -34.98620000     -69.86890000
C      -47.22090000     -36.03060000     -72.55230000
C      -45.16210000     -34.92310000     -72.20350000
C      -44.94410000     -35.63450000     -73.36200000
S      -48.85460000     -36.30250000     -71.92040000
S      -46.29460000     -36.59320000     -73.88790000
H      -44.03900000     -35.45350000     -73.97890000
