40
Properties=species:S:1:pos:R:3 #=T CELL(abcABC):=T 1.889726e+02=T 90.00000=T Traj:=T positionsangstrom=T Step:=T 0=T Bead:=T pbc="F F F"
C      -42.10490000     -30.33010000     -71.39670000
C      -42.82410000     -31.01060000     -70.40710000
C      -44.22330000     -30.91130000     -70.30910000
C      -44.80800000     -29.99280000     -71.24080000
C      -44.09380000     -29.10260000     -72.02620000
C      -42.71930000     -29.26370000     -72.04400000
H      -41.04430000     -30.44710000     -71.59340000
H      -44.74180000     -31.49940000     -69.62200000
H      -44.51710000     -28.29510000     -72.67790000
H      -42.11560000     -28.71310000     -72.78210000
C      -46.37350000     -29.91960000     -71.30390000
H      -46.70180000     -29.18340000     -72.06370000
H      -46.69410000     -29.49320000     -70.30710000
C      -42.20490000     -31.93270000     -69.32260000
H      -41.36340000     -31.43540000     -68.89820000
H      -42.99120000     -32.05510000     -68.59860000
S      -47.39560000     -31.50340000     -71.63600000
S      -41.80030000     -33.67490000     -69.93590000
C      -47.68110000     -32.31090000     -70.00360000
H      -47.59420000     -31.58150000     -69.24460000
H      -48.68470000     -32.77430000     -70.00770000
C      -43.39060000     -34.49740000     -70.21300000
H      -44.12560000     -34.24130000     -69.46830000
H      -43.24720000     -35.57630000     -70.13420000
C      -43.93770000     -34.12170000     -71.69410000
H      -44.22820000     -33.05390000     -71.70980000
H      -43.14080000     -34.15940000     -72.43480000
C      -46.79020000     -33.51100000     -69.64420000
H      -46.93060000     -33.68150000     -68.57110000
H      -45.63740000     -33.23220000     -69.74220000
C      -47.12240000     -34.64400000     -70.58080000
C      -48.27570000     -35.34860000     -70.37970000
C      -46.29910000     -35.17900000     -71.62210000
H      -48.96690000     -35.13430000     -69.57540000
C      -46.90990000     -36.28230000     -72.21770000
C      -44.97700000     -35.01910000     -72.14710000
C      -44.74970000     -35.75870000     -73.27130000
S      -48.51500000     -36.55420000     -71.64410000
S      -46.06470000     -36.83290000     -73.69390000
H      -43.79080000     -35.83720000     -73.81150000
