40
Properties=species:S:1:pos:R:3 #=T CELL(abcABC):=T 1.889726e+02=T 90.00000=T Traj:=T positionsangstrom=T Step:=T 0=T Bead:=T pbc="F F F"
C      -42.41430000     -30.13610000     -71.54350000
C      -42.97930000     -30.77090000     -70.48980000
C      -44.34190000     -30.55460000     -70.23050000
C      -45.11760000     -29.79880000     -71.06770000
C      -44.51620000     -29.22950000     -72.21040000
C      -43.17100000     -29.32010000     -72.37180000
H      -41.39730000     -30.26360000     -71.75400000
H      -44.71950000     -30.96640000     -69.28930000
H      -45.18510000     -28.69800000     -72.96220000
H      -42.77580000     -28.77580000     -73.18560000
C      -46.61460000     -29.77210000     -70.89540000
H      -46.93490000     -28.82480000     -71.44870000
H      -46.84370000     -29.67060000     -69.86940000
C      -42.22350000     -31.64950000     -69.47340000
H      -41.39090000     -31.09210000     -69.01670000
H      -42.92000000     -31.79250000     -68.68010000
S      -47.30940000     -31.43020000     -71.57670000
S      -41.63690000     -33.24900000     -70.27260000
C      -47.72610000     -32.33850000     -70.03830000
H      -47.66070000     -31.61580000     -69.21760000
H      -48.78650000     -32.66390000     -70.05300000
C      -43.00610000     -34.38030000     -70.65620000
H      -43.60290000     -34.77890000     -69.83010000
H      -42.42760000     -35.24850000     -71.03540000
C      -44.07230000     -33.82010000     -71.78540000
H      -44.65140000     -32.90440000     -71.52280000
H      -43.51280000     -33.56980000     -72.71320000
C      -46.95050000     -33.58020000     -69.73130000
H      -47.25620000     -33.95690000     -68.76310000
H      -45.84230000     -33.33700000     -69.65730000
C      -47.19350000     -34.71860000     -70.62520000
C      -48.33810000     -35.45070000     -70.51540000
C      -46.28060000     -35.27610000     -71.57040000
H      -49.15850000     -35.06800000     -70.00060000
C      -46.78840000     -36.49710000     -72.11170000
C      -44.96610000     -35.00360000     -72.12290000
C      -44.57000000     -35.87070000     -73.10360000
S      -48.36560000     -37.01000000     -71.48360000
S      -45.72650000     -37.28050000     -73.26070000
H      -43.63620000     -35.84430000     -73.74090000
