40
Properties=species:S:1:pos:R:3 #=T CELL(abcABC):=T 1.889726e+02=T 90.00000=T Traj:=T positionsangstrom=T Step:=T 0=T Bead:=T pbc="F F F"
C      -41.93500000     -30.62880000     -70.97250000
C      -42.77730000     -31.20920000     -69.98320000
C      -44.15750000     -30.96110000     -70.01170000
C      -44.68360000     -30.16530000     -71.04490000
C      -43.85970000     -29.60110000     -72.01820000
C      -42.50690000     -29.83200000     -71.96230000
H      -40.88600000     -30.97850000     -70.89800000
H      -44.91290000     -31.48990000     -69.38140000
H      -44.26000000     -28.89650000     -72.71320000
H      -41.92950000     -29.40660000     -72.78230000
C      -46.16700000     -29.94410000     -71.20160000
H      -46.46810000     -29.16050000     -71.86460000
H      -46.67130000     -29.68940000     -70.27220000
C      -42.26620000     -32.30850000     -68.99900000
H      -41.40140000     -32.01670000     -68.34440000
H      -43.19090000     -32.61280000     -68.48790000
S      -46.93460000     -31.52100000     -71.68960000
S      -41.70660000     -33.71520000     -70.01060000
C      -47.52120000     -32.13370000     -70.06800000
H      -47.29010000     -31.47360000     -69.27780000
H      -48.62800000     -32.20050000     -70.05300000
C      -43.37060000     -34.48440000     -70.56180000
H      -43.93820000     -34.61180000     -69.67000000
H      -43.18070000     -35.58450000     -70.82920000
C      -44.07780000     -33.83480000     -71.76040000
H      -44.35420000     -32.79530000     -71.71550000
H      -43.32240000     -33.74870000     -72.57160000
C      -46.92310000     -33.51620000     -69.66220000
H      -47.25830000     -33.74490000     -68.57260000
H      -45.85840000     -33.59990000     -69.48520000
C      -47.34410000     -34.63230000     -70.57560000
C      -48.56810000     -35.23450000     -70.53920000
C      -46.48240000     -35.05310000     -71.67100000
H      -49.48450000     -34.96240000     -70.11950000
C      -47.18470000     -35.95400000     -72.47000000
C      -45.14310000     -34.80610000     -72.18960000
C      -44.91290000     -35.49420000     -73.29430000
S      -48.70200000     -36.42850000     -71.77290000
S      -46.26740000     -36.59050000     -73.76230000
H      -44.01540000     -35.45810000     -73.84090000
