40
Properties=species:S:1:pos:R:3 #=T CELL(abcABC):=T 1.889726e+02=T 90.00000=T Traj:=T positionsangstrom=T Step:=T 0=T Bead:=T pbc="F F F"
C      -49.11270000     -34.02530000     -68.73850000
C      -47.87660000     -34.75420000     -68.72330000
C      -46.67520000     -34.07810000     -68.43340000
C      -46.70720000     -32.69750000     -68.32200000
C      -47.93580000     -31.96370000     -68.47890000
C      -49.13290000     -32.64570000     -68.61520000
H      -50.10810000     -34.57210000     -68.80140000
H      -45.74650000     -34.64490000     -68.15890000
H      -47.87680000     -30.84390000     -68.25420000
H      -50.08530000     -32.21700000     -68.81020000
C      -45.30190000     -32.06940000     -68.01830000
H      -44.50220000     -32.78700000     -68.22060000
H      -45.27530000     -31.89880000     -66.94150000
C      -47.93890000     -36.20910000     -69.00850000
H      -47.15360000     -36.75600000     -68.43270000
H      -48.90640000     -36.56720000     -68.86970000
S      -44.99070000     -30.48740000     -68.89530000
S      -47.49360000     -36.54380000     -70.79520000
C      -44.68130000     -30.93320000     -70.69580000
H      -45.65460000     -31.34050000     -71.10810000
H      -44.33460000     -29.92800000     -71.16790000
C      -45.84010000     -35.70800000     -71.25300000
H      -45.26130000     -36.54960000     -71.73470000
H      -45.33250000     -35.39810000     -70.35300000
C      -46.04950000     -34.38120000     -72.06490000
H      -46.99280000     -34.50110000     -72.66980000
H      -46.37010000     -33.50060000     -71.40870000
C      -43.52720000     -31.91710000     -70.82940000
H      -43.75770000     -32.79010000     -70.16870000
H      -42.65870000     -31.44140000     -70.35850000
C      -43.16880000     -32.30020000     -72.21530000
C      -42.03290000     -31.75590000     -72.79890000
C      -43.74310000     -33.33760000     -73.10440000
H      -41.30210000     -31.09590000     -72.28750000
C      -43.02910000     -33.33310000     -74.32500000
C      -45.00100000     -34.15410000     -73.13780000
C      -45.22090000     -34.54520000     -74.44080000
S      -41.62810000     -32.29390000     -74.39650000
S      -43.95310000     -34.19130000     -75.57750000
H      -46.11090000     -35.09430000     -74.75740000
