40
Properties=species:S:1:pos:R:3 #=T CELL(abcABC):=T 1.889726e+02=T 90.00000=T Traj:=T positionsangstrom=T Step:=T 0=T Bead:=T pbc="F F F"
C      -42.53650000     -30.10980000     -71.59250000
C      -43.06060000     -30.86060000     -70.51360000
C      -44.44860000     -30.77910000     -70.33750000
C      -45.34700000     -30.03780000     -71.15390000
C      -44.73860000     -29.19120000     -72.15510000
C      -43.34590000     -29.26610000     -72.39560000
H      -41.46160000     -29.95690000     -71.80720000
H      -44.89940000     -31.23440000     -69.42110000
H      -45.29930000     -28.56970000     -72.77450000
H      -42.99760000     -28.43490000     -73.05250000
C      -46.85640000     -30.07380000     -71.22380000
H      -47.13210000     -29.35330000     -71.94540000
H      -47.24440000     -29.74400000     -70.24100000
C      -42.26210000     -31.61590000     -69.47370000
H      -41.52160000     -30.88390000     -69.03570000
H      -42.92740000     -31.97530000     -68.69170000
S      -47.73340000     -31.60330000     -71.59820000
S      -41.51220000     -33.13420000     -70.19810000
C      -47.76850000     -32.30110000     -69.84600000
H      -47.62740000     -31.47890000     -69.10170000
H      -48.79190000     -32.75800000     -69.81670000
C      -42.91480000     -34.26050000     -70.79090000
H      -43.49350000     -34.47100000     -69.91320000
H      -42.36900000     -35.19850000     -71.21450000
C      -43.88950000     -33.86810000     -71.85400000
H      -44.51440000     -33.03390000     -71.53410000
H      -43.36880000     -33.54070000     -72.75990000
C      -46.69640000     -33.41610000     -69.72830000
H      -46.84850000     -33.73250000     -68.62130000
H      -45.72620000     -32.98630000     -69.88530000
C      -46.96270000     -34.65530000     -70.59830000
C      -48.14940000     -35.30470000     -70.47810000
C      -46.10920000     -35.30680000     -71.60500000
H      -49.04340000     -35.14750000     -69.79760000
C      -46.61790000     -36.45520000     -72.03700000
C      -44.76200000     -35.08060000     -72.17170000
C      -44.38910000     -36.04520000     -73.07830000
S      -48.27420000     -36.76540000     -71.43760000
S      -45.66790000     -37.31230000     -73.15570000
H      -43.62780000     -36.00100000     -73.77670000
