40
Properties=species:S:1:pos:R:3 #=T CELL(abcABC):=T 1.889726e+02=T 90.00000=T Traj:=T positionsangstrom=T Step:=T 0=T Bead:=T pbc="F F F"
C      -49.18900000     -34.03380000     -68.86890000
C      -47.86310000     -34.64320000     -68.78460000
C      -46.70490000     -33.86840000     -68.47000000
C      -46.83240000     -32.51830000     -68.15700000
C      -48.07690000     -31.89870000     -68.25390000
C      -49.19820000     -32.69660000     -68.49410000
H      -50.07520000     -34.69250000     -69.11380000
H      -45.75780000     -34.29100000     -68.58450000
H      -48.08450000     -30.82440000     -68.10980000
H      -50.20930000     -32.20050000     -68.48450000
C      -45.60910000     -31.74870000     -67.78140000
H      -44.74190000     -32.48400000     -67.67350000
H      -45.64660000     -31.23710000     -66.81280000
C      -47.63380000     -36.05610000     -69.11460000
H      -46.77250000     -36.47520000     -68.53610000
H      -48.49430000     -36.63600000     -68.81460000
S      -44.97810000     -30.42450000     -69.03730000
S      -47.40310000     -36.42150000     -70.88770000
C      -44.48110000     -31.12780000     -70.63020000
H      -45.30890000     -31.32220000     -71.18910000
H      -44.04030000     -30.16990000     -71.05610000
C      -45.83400000     -35.45950000     -71.23240000
H      -45.14850000     -36.01680000     -71.84650000
H      -45.30580000     -35.27720000     -70.29740000
C      -46.00860000     -34.09780000     -72.03320000
H      -47.04700000     -34.02390000     -72.41260000
H      -45.79800000     -33.27850000     -71.39890000
C      -43.44790000     -32.32010000     -70.70510000
H      -43.90660000     -33.21360000     -70.35560000
H      -42.55450000     -32.14650000     -70.09290000
C      -43.10320000     -32.52940000     -72.19450000
C      -41.94410000     -31.99460000     -72.70780000
C      -43.79310000     -33.38270000     -73.15810000
H      -41.34710000     -31.29900000     -72.16900000
C      -43.11120000     -33.43550000     -74.36000000
C      -45.04880000     -34.06470000     -73.22820000
C      -45.31880000     -34.70630000     -74.43180000
S      -41.69620000     -32.37170000     -74.47830000
S      -43.93550000     -34.41890000     -75.50780000
H      -46.20940000     -35.21500000     -74.82970000
