40
Properties=species:S:1:pos:R:3 #=T CELL(abcABC):=T 1.889726e+02=T 90.00000=T Traj:=T positionsangstrom=T Step:=T 0=T Bead:=T pbc="F F F"
C      -42.38620000     -33.77210000     -69.10200000
C      -42.58810000     -34.76730000     -70.14510000
C      -42.32040000     -34.35960000     -71.45490000
C      -41.86550000     -33.05460000     -71.73220000
C      -41.59640000     -32.20670000     -70.68650000
C      -41.90690000     -32.52700000     -69.36530000
H      -42.78910000     -33.93780000     -68.07630000
H      -42.38200000     -35.02350000     -72.31620000
H      -41.28960000     -31.18080000     -70.93790000
H      -41.90130000     -31.89690000     -68.46250000
C      -41.69920000     -32.52690000     -73.13240000
H      -41.04260000     -33.08260000     -73.80950000
H      -41.27060000     -31.50610000     -73.21320000
C      -43.12740000     -36.16360000     -69.85560000
H      -42.32310000     -36.87690000     -69.57080000
H      -43.74260000     -36.17700000     -68.98050000
S      -43.25880000     -32.48560000     -73.97330000
S      -44.19140000     -36.94210000     -71.22660000
C      -44.43650000     -32.15530000     -72.63050000
H      -44.32870000     -33.00120000     -71.98600000
H      -44.21460000     -31.28400000     -72.06970000
C      -45.83300000     -36.24080000     -70.73510000
H      -45.92070000     -36.17260000     -69.62730000
H      -46.52440000     -37.03730000     -71.11120000
C      -46.05150000     -34.90270000     -71.41810000
H      -45.11570000     -34.37450000     -71.29910000
H      -46.23250000     -35.01270000     -72.51160000
C      -45.79020000     -32.10790000     -73.29820000
H      -45.95250000     -33.06220000     -73.82600000
H      -45.70370000     -31.30200000     -74.03550000
C      -46.90390000     -31.89530000     -72.34890000
C      -47.53700000     -30.68850000     -72.39030000
C      -47.45300000     -32.76120000     -71.33330000
H      -47.26950000     -29.94570000     -73.18990000
C      -48.51470000     -32.15520000     -70.63450000
C      -47.20600000     -34.11340000     -70.90580000
C      -48.17730000     -34.55810000     -69.98830000
S      -48.83230000     -30.56960000     -71.19570000
S      -49.34750000     -33.32170000     -69.59470000
H      -48.27880000     -35.57610000     -69.59050000
