40
Properties=species:S:1:pos:R:3 #=T CELL(abcABC):=T 1.889726e+02=T 90.00000=T Traj:=T positionsangstrom=T Step:=T 0=T Bead:=T pbc="F F F"
C      -42.90020000     -30.68150000     -72.54160000
C      -43.12230000     -30.91010000     -71.17570000
C      -44.36500000     -30.47700000     -70.56830000
C      -45.37940000     -30.07410000     -71.45250000
C      -45.17250000     -29.88780000     -72.83470000
C      -43.91190000     -30.16860000     -73.33590000
H      -41.91170000     -31.00770000     -72.88570000
H      -44.40120000     -30.70470000     -69.49870000
H      -46.01390000     -29.56820000     -73.49760000
H      -43.61510000     -30.05680000     -74.33750000
C      -46.75690000     -29.71880000     -70.97210000
H      -47.27700000     -28.95670000     -71.55200000
H      -46.66090000     -29.31920000     -69.93680000
C      -42.02290000     -31.46180000     -70.19000000
H      -41.08980000     -30.87040000     -70.22230000
H      -42.41330000     -31.55600000     -69.19720000
S      -47.92940000     -31.16570000     -71.13960000
S      -41.29130000     -33.08280000     -70.48140000
C      -47.41340000     -32.08980000     -69.59070000
H      -47.04170000     -31.40750000     -68.90100000
H      -48.28320000     -32.55780000     -69.10600000
C      -42.79050000     -34.22670000     -70.36450000
H      -43.45250000     -33.84410000     -69.48520000
H      -42.47510000     -35.25690000     -70.06160000
C      -43.63570000     -34.17470000     -71.65340000
H      -44.16260000     -33.23080000     -71.79290000
H      -42.95290000     -34.25520000     -72.44900000
C      -46.40500000     -33.18640000     -69.75310000
H      -46.13190000     -33.43290000     -68.75660000
H      -45.48040000     -32.89260000     -70.27750000
C      -46.94720000     -34.46330000     -70.51150000
C      -48.15300000     -35.06460000     -70.34580000
C      -46.05060000     -35.26040000     -71.38370000
H      -48.92610000     -34.66440000     -69.70550000
C      -46.69130000     -36.41330000     -71.81860000
C      -44.60940000     -35.27280000     -71.80630000
C      -44.37630000     -36.41550000     -72.57970000
S      -48.34340000     -36.54100000     -71.19740000
S      -45.77840000     -37.48150000     -72.83190000
H      -43.48470000     -36.50460000     -73.25720000
