40
Properties=species:S:1:pos:R:3 #=T CELL(abcABC):=T 1.889726e+02=T 90.00000=T Traj:=T positionsangstrom=T Step:=T 0=T Bead:=T pbc="F F F"
C      -42.73840000     -30.68600000     -72.32590000
C      -43.13750000     -30.85080000     -70.97560000
C      -44.45240000     -30.53130000     -70.60300000
C      -45.46060000     -30.21770000     -71.55700000
C      -45.06390000     -30.03420000     -72.90050000
C      -43.70820000     -30.16550000     -73.18820000
H      -41.66960000     -30.82880000     -72.71640000
H      -44.57800000     -30.59390000     -69.53820000
H      -45.78660000     -29.77470000     -73.68960000
H      -43.35990000     -29.95880000     -74.18750000
C      -46.87250000     -29.98700000     -71.07290000
H      -47.46850000     -29.29700000     -71.70510000
H      -46.75860000     -29.54570000     -70.01710000
C      -42.20560000     -31.39060000     -69.90760000
H      -41.30940000     -30.81180000     -69.69730000
H      -42.75590000     -31.38310000     -68.89560000
S      -47.88000000     -31.53230000     -70.98540000
S      -41.45520000     -32.98690000     -70.30640000
C      -47.40710000     -32.31480000     -69.33540000
H      -47.08070000     -31.52830000     -68.58450000
H      -48.32160000     -32.74620000     -68.84020000
C      -42.80940000     -34.25750000     -70.46310000
H      -43.36820000     -34.20880000     -69.52190000
H      -42.23500000     -35.20480000     -70.62570000
C      -43.64450000     -34.00710000     -71.76660000
H      -44.19620000     -33.03450000     -71.57220000
H      -42.90050000     -33.90500000     -72.51740000
C      -46.32710000     -33.34210000     -69.55570000
H      -46.10860000     -33.80390000     -68.52610000
H      -45.40860000     -32.91130000     -69.85990000
C      -46.80220000     -34.51280000     -70.38040000
C      -47.92180000     -35.27190000     -70.11380000
C      -45.96420000     -35.18370000     -71.42870000
H      -48.75400000     -34.98300000     -69.52940000
C      -46.65620000     -36.25090000     -71.98120000
C      -44.73620000     -35.00910000     -72.08110000
C      -44.53230000     -35.97830000     -73.03160000
S      -48.17850000     -36.64380000     -71.18480000
S      -45.93120000     -37.07450000     -73.29190000
H      -43.60000000     -36.11780000     -73.63790000
