40
Properties=species:S:1:pos:R:3 #=T CELL(abcABC):=T 1.889726e+02=T 90.00000=T Traj:=T positionsangstrom=T Step:=T 0=T Bead:=T pbc="F F F"
C      -42.72960000     -30.48710000     -72.19740000
C      -42.99610000     -30.63170000     -70.86560000
C      -44.30240000     -30.44650000     -70.33560000
C      -45.39490000     -30.18280000     -71.22430000
C      -45.11910000     -30.08430000     -72.62960000
C      -43.82530000     -30.38580000     -73.09190000
H      -41.72440000     -30.59440000     -72.58620000
H      -44.59790000     -30.77030000     -69.32030000
H      -45.93250000     -29.98630000     -73.38590000
H      -43.74880000     -30.35620000     -74.11760000
C      -46.81040000     -29.88540000     -70.69210000
H      -47.19240000     -28.98830000     -71.08150000
H      -46.87090000     -29.93170000     -69.61340000
C      -41.91510000     -31.20630000     -69.93070000
H      -41.06230000     -30.58890000     -69.95410000
H      -42.28810000     -31.29880000     -68.90170000
S      -47.86970000     -31.30480000     -71.12510000
S      -41.39040000     -32.91280000     -70.49220000
C      -47.66710000     -32.42450000     -69.57040000
H      -47.70680000     -31.74770000     -68.76810000
H      -48.55010000     -33.02940000     -69.37950000
C      -42.82270000     -34.09500000     -70.71180000
H      -43.32810000     -34.05930000     -69.79390000
H      -42.29760000     -35.03830000     -70.76160000
C      -43.79360000     -33.90850000     -71.86170000
H      -44.31040000     -32.92650000     -71.69610000
H      -43.20750000     -33.84370000     -72.81420000
C      -46.46860000     -33.35770000     -69.70120000
H      -45.98770000     -33.32090000     -68.68810000
H      -45.69630000     -32.87440000     -70.30730000
C      -46.82310000     -34.75320000     -70.39790000
C      -48.07050000     -35.31420000     -70.26310000
C      -46.04750000     -35.33320000     -71.42010000
H      -48.83970000     -35.13740000     -69.57950000
C      -46.74580000     -36.40910000     -71.97840000
C      -44.71680000     -35.13850000     -72.03370000
C      -44.49680000     -36.13020000     -73.02830000
S      -48.19240000     -36.71220000     -71.25750000
S      -45.83570000     -37.23830000     -73.14390000
H      -43.66640000     -36.17310000     -73.70840000
