40
Properties=species:S:1:pos:R:3 #=T CELL(abcABC):=T 1.889726e+02=T 90.00000=T Traj:=T positionsangstrom=T Step:=T 0=T Bead:=T pbc="F F F"
C      -42.80970000     -30.73330000     -72.41270000
C      -43.22640000     -30.98410000     -71.05370000
C      -44.47950000     -30.52510000     -70.62400000
C      -45.41790000     -30.07070000     -71.61980000
C      -45.04340000     -29.87360000     -72.93940000
C      -43.67370000     -30.07890000     -73.31100000
H      -41.73900000     -30.92550000     -72.68200000
H      -44.76190000     -30.72510000     -69.60760000
H      -45.81400000     -29.38580000     -73.59490000
H      -43.26950000     -29.78470000     -74.30650000
C      -46.80640000     -29.85660000     -71.04410000
H      -47.33510000     -29.09820000     -71.63550000
H      -46.69030000     -29.43410000     -70.02730000
C      -42.22220000     -31.37180000     -70.04270000
H      -41.42930000     -30.61050000     -70.02520000
H      -42.80030000     -31.35750000     -69.06770000
S      -48.01190000     -31.22790000     -71.05030000
S      -41.49390000     -33.03600000     -70.34640000
C      -47.45270000     -32.22200000     -69.58180000
H      -47.23610000     -31.52370000     -68.72700000
H      -48.37370000     -32.76690000     -69.23270000
C      -42.81190000     -34.18470000     -70.38490000
H      -43.45410000     -34.02850000     -69.58200000
H      -42.34910000     -35.13490000     -70.06250000
C      -43.58260000     -34.26280000     -71.75060000
H      -44.05960000     -33.21520000     -71.87290000
H      -42.89580000     -34.37530000     -72.61600000
C      -46.31000000     -33.17060000     -69.84820000
H      -45.70270000     -33.37430000     -68.90760000
H      -45.55170000     -32.63190000     -70.38410000
C      -46.76010000     -34.55460000     -70.44210000
C      -48.02920000     -35.01300000     -70.24280000
C      -45.95420000     -35.34940000     -71.32530000
H      -48.82710000     -34.57300000     -69.68920000
C      -46.64380000     -36.44360000     -71.81020000
C      -44.61130000     -35.31390000     -71.88780000
C      -44.38310000     -36.35270000     -72.76110000
S      -48.30010000     -36.45340000     -71.20610000
S      -45.71960000     -37.41620000     -72.95660000
H      -43.45420000     -36.59400000     -73.36400000
