40
Properties=species:S:1:pos:R:3 #=T CELL(abcABC):=T 1.889726e+02=T 90.00000=T Traj:=T positionsangstrom=T Step:=T 0=T Bead:=T pbc="F F F"
C      -42.71950000     -30.65420000     -72.27750000
C      -43.18110000     -30.85450000     -70.94680000
C      -44.54480000     -30.57770000     -70.59420000
C      -45.42770000     -30.12100000     -71.56440000
C      -45.04000000     -29.96700000     -72.91840000
C      -43.71620000     -30.23710000     -73.25450000
H      -41.71330000     -30.86430000     -72.56850000
H      -44.92110000     -30.45560000     -69.59200000
H      -45.80940000     -29.77230000     -73.62620000
H      -43.32570000     -30.20330000     -74.32100000
C      -46.88130000     -29.78320000     -71.30860000
H      -47.26110000     -29.24200000     -72.19840000
H      -47.11900000     -29.19120000     -70.45700000
C      -42.20350000     -31.36640000     -69.92300000
H      -41.42590000     -30.64920000     -69.89880000
H      -42.56250000     -31.38930000     -68.89540000
S      -47.92590000     -31.36240000     -70.94150000
S      -41.45040000     -33.03670000     -70.18160000
C      -47.21760000     -32.13040000     -69.46710000
H      -46.65480000     -31.44410000     -68.90570000
H      -48.07200000     -32.35500000     -68.88510000
C      -43.05250000     -34.19750000     -70.49070000
H      -43.80560000     -33.93370000     -69.76300000
H      -42.54080000     -35.17110000     -70.39430000
C      -43.68420000     -34.07340000     -71.84920000
H      -44.13280000     -33.08920000     -71.88740000
H      -42.93700000     -34.20030000     -72.64340000
C      -46.25380000     -33.30000000     -69.72800000
H      -45.90980000     -33.66700000     -68.77540000
H      -45.44170000     -32.83990000     -70.23300000
C      -46.80270000     -34.48860000     -70.55800000
C      -48.02250000     -35.02000000     -70.30380000
C      -45.99430000     -35.22080000     -71.51430000
H      -48.78300000     -34.63530000     -69.64580000
C      -46.65950000     -36.36190000     -71.93730000
C      -44.65630000     -35.17050000     -72.04550000
C      -44.45400000     -36.20610000     -72.94410000
S      -48.22530000     -36.54750000     -71.21130000
S      -45.80950000     -37.42320000     -72.99900000
H      -43.46730000     -36.43260000     -73.41120000
