40
Properties=species:S:1:pos:R:3 #=T CELL(abcABC):=T 1.889726e+02=T 90.00000=T Traj:=T positionsangstrom=T Step:=T 0=T Bead:=T pbc="F F F"
C      -42.85130000     -30.75460000     -72.56630000
C      -43.00840000     -30.85960000     -71.12290000
C      -44.26950000     -30.57400000     -70.58650000
C      -45.26360000     -30.03090000     -71.44380000
C      -45.04390000     -29.78110000     -72.82490000
C      -43.89270000     -30.33020000     -73.36830000
H      -41.92540000     -31.11760000     -73.05960000
H      -44.29380000     -30.54760000     -69.45130000
H      -45.79770000     -29.33410000     -73.47700000
H      -43.75760000     -30.44960000     -74.42300000
C      -46.54590000     -29.69080000     -70.87200000
H      -46.97900000     -28.78790000     -71.28930000
H      -46.44110000     -29.60660000     -69.80970000
C      -41.93380000     -31.33710000     -70.21730000
H      -41.02040000     -30.72280000     -70.26010000
H      -42.18630000     -31.22420000     -69.13040000
S      -47.73260000     -31.16390000     -71.06260000
S      -41.36220000     -33.05020000     -70.70280000
C      -47.55290000     -32.23380000     -69.57050000
H      -47.36440000     -31.51880000     -68.71310000
H      -48.50630000     -32.72820000     -69.37200000
C      -42.91000000     -34.13860000     -70.53290000
H      -43.30670000     -33.84460000     -69.57650000
H      -42.57070000     -35.09810000     -70.55810000
C      -43.89000000     -33.99740000     -71.74220000
H      -44.47900000     -33.06030000     -71.77930000
H      -43.22720000     -34.03070000     -72.63190000
C      -46.50350000     -33.27600000     -69.71380000
H      -46.27080000     -33.57240000     -68.64540000
H      -45.60420000     -32.89680000     -70.22240000
C      -46.99970000     -34.47390000     -70.52210000
C      -48.25600000     -34.97080000     -70.36890000
C      -46.07270000     -35.38610000     -71.21630000
H      -49.12360000     -34.54600000     -69.82580000
C      -46.69620000     -36.52800000     -71.66780000
C      -44.77980000     -35.22370000     -71.82630000
C      -44.43770000     -36.31740000     -72.62040000
S      -48.42140000     -36.53060000     -71.26780000
S      -45.73260000     -37.55880000     -72.64060000
H      -43.47280000     -36.48520000     -73.08430000
