40
Properties=species:S:1:pos:R:3 #=T CELL(abcABC):=T 1.889726e+02=T 90.00000=T Traj:=T positionsangstrom=T Step:=T 0=T Bead:=T pbc="F F F"
C      -49.23420000     -33.46570000     -71.57580000
C      -48.37660000     -33.15700000     -72.65370000
C      -47.70970000     -31.96360000     -72.71320000
C      -47.82600000     -31.01680000     -71.56770000
C      -48.60200000     -31.37830000     -70.50390000
C      -49.30310000     -32.61880000     -70.45910000
H      -49.80760000     -34.46820000     -71.52810000
H      -47.03830000     -31.89730000     -73.53160000
H      -48.71330000     -30.72770000     -69.63670000
H      -49.81750000     -32.87280000     -69.53110000
C      -47.06410000     -29.75680000     -71.55400000
H      -46.99950000     -29.35550000     -70.54050000
H      -47.53750000     -28.99450000     -72.10530000
C      -48.24220000     -34.14020000     -73.78190000
H      -48.67790000     -35.11410000     -73.61670000
H      -48.71040000     -33.81800000     -74.70420000
S      -45.35000000     -29.90720000     -72.36280000
S      -46.51820000     -34.35530000     -74.34730000
C      -44.51600000     -30.91250000     -71.03660000
H      -43.38670000     -30.79570000     -71.13150000
H      -44.84520000     -30.49400000     -70.05660000
C      -45.78000000     -35.36580000     -72.86930000
H      -46.07270000     -36.42590000     -72.87600000
H      -46.16250000     -34.95020000     -71.92590000
C      -44.23870000     -35.11370000     -72.94060000
H      -43.74990000     -35.87450000     -73.56960000
H      -44.01960000     -34.10170000     -73.24220000
C      -44.89270000     -32.37600000     -71.08330000
H      -44.75450000     -32.73300000     -72.19130000
H      -45.94720000     -32.62100000     -70.69610000
C      -44.03220000     -33.12520000     -70.16760000
C      -43.74990000     -32.77890000     -68.86480000
C      -43.45220000     -34.42440000     -70.46800000
H      -43.95540000     -31.75770000     -68.49990000
C      -42.77500000     -34.99500000     -69.36640000
C      -43.52180000     -35.28860000     -71.59230000
C      -42.83970000     -36.42470000     -71.38910000
S      -42.65170000     -33.84140000     -68.02300000
S      -42.18370000     -36.59620000     -69.75410000
H      -42.65380000     -37.13580000     -72.17900000
