40
Properties=species:S:1:pos:R:3 #=T CELL(abcABC):=T 1.889726e+02=T 90.00000=T Traj:=T positionsangstrom=T Step:=T 0=T Bead:=T pbc="F F F"
C      -43.24410000     -31.34230000     -73.34970000
C      -43.05410000     -31.20110000     -71.96430000
C      -44.02240000     -30.56020000     -71.15130000
C      -45.26680000     -30.17700000     -71.70710000
C      -45.48090000     -30.38460000     -73.03860000
C      -44.44670000     -30.88090000     -73.86550000
H      -42.63750000     -31.90360000     -74.05500000
H      -43.80950000     -30.43840000     -70.08870000
H      -46.39620000     -30.04960000     -73.50040000
H      -44.65270000     -31.01160000     -74.93510000
C      -46.35780000     -29.61520000     -70.86540000
H      -47.00990000     -29.09730000     -71.55620000
H      -46.10180000     -28.92180000     -70.06830000
C      -41.73640000     -31.69830000     -71.31940000
H      -40.89400000     -31.06220000     -71.64190000
H      -41.85340000     -31.69400000     -70.19290000
S      -47.53100000     -30.89410000     -70.17210000
S      -41.18460000     -33.47530000     -71.76310000
C      -46.43020000     -31.84000000     -69.05350000
H      -45.75790000     -31.04820000     -68.64080000
H      -46.94390000     -32.16540000     -68.21520000
C      -42.62260000     -34.53090000     -71.17510000
H      -43.02280000     -34.15940000     -70.22080000
H      -42.25610000     -35.52290000     -71.06110000
C      -43.81900000     -34.49060000     -72.20130000
H      -44.14080000     -33.39760000     -72.28160000
H      -43.34530000     -34.76950000     -73.19460000
C      -45.71410000     -32.95540000     -69.73260000
H      -44.91170000     -33.19570000     -69.03360000
H      -45.35370000     -32.61770000     -70.68860000
C      -46.54680000     -34.11480000     -70.07540000
C      -47.74560000     -34.41510000     -69.52770000
C      -46.15440000     -35.09080000     -71.09840000
H      -48.22580000     -33.87620000     -68.77870000
C      -47.14960000     -36.04500000     -71.25390000
C      -45.02810000     -35.32680000     -71.91750000
C      -45.14180000     -36.55700000     -72.60450000
S      -48.43270000     -35.94770000     -70.12850000
S      -46.59950000     -37.42090000     -72.24520000
H      -44.41180000     -36.88070000     -73.42000000
