40
Properties=species:S:1:pos:R:3 #=T CELL(abcABC):=T 1.889726e+02=T 90.00000=T Traj:=T positionsangstrom=T Step:=T 0=T Bead:=T pbc="F F F"
C      -43.33250000     -31.13910000     -73.59820000
C      -42.96230000     -31.18160000     -72.23880000
C      -43.85960000     -30.60000000     -71.38040000
C      -45.09960000     -30.12230000     -71.72580000
C      -45.43200000     -30.02910000     -73.13350000
C      -44.50170000     -30.55970000     -73.98430000
H      -42.64660000     -31.57790000     -74.37490000
H      -43.51400000     -30.61800000     -70.30160000
H      -46.38180000     -29.61960000     -73.48140000
H      -44.78590000     -30.68980000     -75.09400000
C      -46.10450000     -29.60670000     -70.69370000
H      -46.71980000     -28.81710000     -71.11490000
H      -45.52840000     -29.13600000     -69.89440000
C      -41.70130000     -31.87910000     -71.75350000
H      -40.75150000     -31.36130000     -72.09370000
H      -41.73840000     -31.87390000     -70.67490000
S      -47.17550000     -30.91880000     -69.98820000
S      -41.35420000     -33.63750000     -72.26280000
C      -46.03110000     -31.85500000     -68.80430000
H      -45.25410000     -31.22360000     -68.58130000
H      -46.66300000     -32.00960000     -67.87970000
C      -42.77280000     -34.49850000     -71.54010000
H      -42.92450000     -33.97920000     -70.59440000
H      -42.52880000     -35.56450000     -71.29390000
C      -44.08310000     -34.42040000     -72.31580000
H      -44.43370000     -33.37330000     -72.27020000
H      -43.88560000     -34.54900000     -73.37470000
C      -45.55760000     -33.15290000     -69.51730000
H      -44.85030000     -33.63560000     -68.83850000
H      -45.00440000     -32.81750000     -70.34110000
C      -46.61420000     -34.14220000     -69.94240000
C      -47.73270000     -34.40690000     -69.26980000
C      -46.19950000     -35.20080000     -70.84640000
H      -48.24710000     -33.76950000     -68.48850000
C      -47.07430000     -36.27180000     -70.81310000
C      -45.21690000     -35.36780000     -71.89510000
C      -45.42760000     -36.55540000     -72.62510000
S      -48.50580000     -35.85750000     -69.88420000
S      -46.84410000     -37.42320000     -72.09140000
H      -44.74860000     -36.86740000     -73.39750000
