40
Properties=species:S:1:pos:R:3 #=T CELL(abcABC):=T 1.889726e+02=T 90.00000=T Traj:=T positionsangstrom=T Step:=T 0=T Bead:=T pbc="F F F"
C      -46.81100000     -36.10010000     -74.33930000
C      -46.72330000     -35.68960000     -72.98820000
C      -46.43180000     -34.30460000     -72.78570000
C      -46.28120000     -33.36780000     -73.83160000
C      -46.40520000     -33.77820000     -75.15220000
C      -46.70650000     -35.15910000     -75.38030000
H      -47.06470000     -37.05970000     -74.66090000
H      -46.31450000     -33.96290000     -71.77200000
H      -46.27590000     -33.07150000     -75.93740000
H      -46.90570000     -35.47950000     -76.34130000
C      -45.92040000     -31.90850000     -73.53030000
H      -46.24410000     -31.63850000     -72.49580000
H      -46.54420000     -31.25590000     -74.22500000
C      -46.80920000     -36.80060000     -72.00800000
H      -47.86190000     -37.00120000     -71.80350000
H      -46.34420000     -37.71190000     -72.46850000
S      -44.07770000     -31.54140000     -73.84310000
S      -46.00260000     -36.33810000     -70.28810000
C      -43.21480000     -32.86050000     -72.75640000
H      -43.94990000     -33.68570000     -72.45270000
H      -42.33930000     -33.34490000     -73.28370000
C      -44.33980000     -35.77700000     -70.77150000
H      -44.48230000     -35.23570000     -71.75390000
H      -43.66440000     -36.61680000     -71.14950000
C      -43.56890000     -34.98390000     -69.73570000
H      -43.20190000     -35.63550000     -68.89850000
H      -42.63240000     -34.59340000     -70.15380000
C      -42.62840000     -32.09810000     -71.50850000
H      -42.19660000     -31.13640000     -71.94460000
H      -41.85840000     -32.61840000     -70.92270000
C      -43.84750000     -31.65460000     -70.65480000
C      -44.35210000     -30.39650000     -70.65110000
C      -44.53490000     -32.50270000     -69.67800000
H      -44.24220000     -29.78710000     -71.52420000
C      -45.62820000     -31.82510000     -69.10110000
C      -44.47350000     -33.84320000     -69.13560000
C      -45.37220000     -34.06220000     -68.18090000
S      -45.73750000     -30.21140000     -69.62190000
S      -46.21030000     -32.65890000     -67.63850000
H      -45.60770000     -34.99440000     -67.66930000
