40
Properties=species:S:1:pos:R:3 #=T CELL(abcABC):=T 1.889726e+02=T 90.00000=T Traj:=T positionsangstrom=T Step:=T 0=T Bead:=T pbc="F F F"
C      -46.95480000     -36.17410000     -74.27450000
C      -46.72170000     -35.75860000     -72.99150000
C      -46.43870000     -34.36070000     -72.81260000
C      -46.40940000     -33.43670000     -73.91020000
C      -46.64140000     -33.90000000     -75.14770000
C      -46.93680000     -35.27680000     -75.32900000
H      -47.10440000     -37.27570000     -74.40110000
H      -46.30680000     -34.03380000     -71.77710000
H      -46.73790000     -33.29240000     -76.03550000
H      -47.05790000     -35.69080000     -76.33920000
C      -46.07660000     -31.97750000     -73.57170000
H      -46.21860000     -31.76860000     -72.55110000
H      -46.48790000     -31.14180000     -74.11620000
C      -46.77690000     -36.74240000     -71.76410000
H      -47.80290000     -36.87840000     -71.44770000
H      -46.37560000     -37.72760000     -72.11350000
S      -44.22290000     -31.73450000     -74.02230000
S      -45.87000000     -36.24840000     -70.30300000
C      -43.14670000     -32.73430000     -72.88180000
H      -43.73140000     -33.64870000     -72.70990000
H      -42.29310000     -33.01440000     -73.51210000
C      -44.14760000     -35.80290000     -70.75100000
H      -44.27760000     -35.21970000     -71.62810000
H      -43.45050000     -36.57970000     -70.84270000
C      -43.47820000     -34.93820000     -69.58890000
H      -43.34970000     -35.63930000     -68.79210000
H      -42.46420000     -34.69180000     -69.97200000
C      -42.69120000     -32.09130000     -71.56690000
H      -42.08060000     -31.23410000     -71.71700000
H      -42.09780000     -32.84190000     -71.08110000
C      -43.80270000     -31.59940000     -70.66130000
C      -44.38210000     -30.39440000     -70.75490000
C      -44.38080000     -32.38910000     -69.56780000
H      -43.94560000     -29.57860000     -71.24290000
C      -45.47090000     -31.71830000     -68.96000000
C      -44.36820000     -33.76260000     -69.12680000
C      -45.17250000     -34.05200000     -68.08820000
S      -45.65950000     -30.03970000     -69.56460000
S      -46.31450000     -32.71130000     -67.71120000
H      -45.32720000     -35.11130000     -67.76170000
