40
Properties=species:S:1:pos:R:3 #=T CELL(abcABC):=T 1.889726e+02=T 90.00000=T Traj:=T positionsangstrom=T Step:=T 0=T Bead:=T pbc="F F F"
C      -43.13560000     -31.37620000     -73.17260000
C      -43.01310000     -31.15680000     -71.80240000
C      -44.01200000     -30.47750000     -71.03130000
C      -45.24560000     -30.15860000     -71.66680000
C      -45.38720000     -30.40960000     -73.01250000
C      -44.39430000     -31.04710000     -73.75690000
H      -42.41400000     -31.70290000     -73.80830000
H      -43.93710000     -30.20740000     -69.95350000
H      -46.31100000     -30.21760000     -73.54030000
H      -44.52450000     -31.27070000     -74.75410000
C      -46.36070000     -29.53600000     -70.80920000
H      -46.88200000     -28.77900000     -71.34730000
H      -45.88360000     -29.08030000     -69.90440000
C      -41.76070000     -31.63560000     -71.00360000
H      -40.84720000     -31.07790000     -71.24670000
H      -41.93370000     -31.62530000     -69.93660000
S      -47.57600000     -30.79260000     -70.21340000
S      -41.29660000     -33.32670000     -71.56300000
C      -46.45500000     -31.83990000     -69.18230000
H      -45.74020000     -31.34150000     -68.53450000
H      -47.14890000     -32.39520000     -68.47240000
C      -42.78030000     -34.32330000     -71.11150000
H      -43.20000000     -33.92790000     -70.12900000
H      -42.40280000     -35.33500000     -70.83930000
C      -43.81110000     -34.45890000     -72.22700000
H      -44.29790000     -33.49490000     -72.37150000
H      -43.39960000     -34.68480000     -73.23000000
C      -45.71550000     -32.99270000     -69.85960000
H      -44.86670000     -33.29010000     -69.19120000
H      -45.21920000     -32.68450000     -70.80760000
C      -46.58250000     -34.24610000     -70.09740000
C      -47.88360000     -34.43980000     -69.75880000
C      -46.01780000     -35.29440000     -71.00660000
H      -48.52500000     -33.83360000     -69.18930000
C      -47.00120000     -36.28320000     -71.16910000
C      -44.89650000     -35.46080000     -71.88340000
C      -45.05430000     -36.58380000     -72.74330000
S      -48.45650000     -36.01570000     -70.34150000
S      -46.58450000     -37.41500000     -72.44520000
H      -44.32670000     -36.95090000     -73.46440000
