40
Properties=species:S:1:pos:R:3 #=T CELL(abcABC):=T 1.889726e+02=T 90.00000=T Traj:=T positionsangstrom=T Step:=T 0=T Bead:=T pbc="F F F"
C      -43.23630000     -31.14860000     -73.64330000
C      -42.79610000     -31.18520000     -72.34830000
C      -43.70830000     -30.82090000     -71.35300000
C      -44.97020000     -30.24270000     -71.71410000
C      -45.36220000     -30.18160000     -73.04210000
C      -44.48320000     -30.67220000     -74.03830000
H      -42.55150000     -31.41840000     -74.44300000
H      -43.36830000     -30.93160000     -70.28780000
H      -46.20270000     -29.59470000     -73.45380000
H      -44.83640000     -30.64890000     -75.06470000
C      -45.85540000     -29.61790000     -70.61910000
H      -46.43350000     -28.85050000     -71.00010000
H      -45.21220000     -29.32710000     -69.72100000
C      -41.48170000     -31.71110000     -71.93230000
H      -40.67420000     -31.37530000     -72.60830000
H      -41.25950000     -31.62130000     -70.85310000
S      -47.09840000     -30.74300000     -69.88070000
S      -41.52630000     -33.56890000     -72.54150000
C      -45.98820000     -31.92000000     -68.85630000
H      -45.00580000     -31.39350000     -68.59980000
H      -46.41270000     -32.06530000     -67.89040000
C      -42.83410000     -34.46730000     -71.46770000
H      -42.96570000     -34.01250000     -70.45330000
H      -42.55320000     -35.47570000     -71.37530000
C      -44.19430000     -34.42110000     -72.28730000
H      -44.63400000     -33.40440000     -72.29040000
H      -43.98520000     -34.49560000     -73.39920000
C      -45.51000000     -33.13990000     -69.52820000
H      -44.79510000     -33.67320000     -68.87820000
H      -45.01020000     -32.86880000     -70.50160000
C      -46.59230000     -34.16400000     -69.81630000
C      -47.65900000     -34.48640000     -69.05050000
C      -46.34970000     -35.10570000     -70.89760000
H      -48.13960000     -34.01730000     -68.12520000
C      -47.32770000     -36.14860000     -70.93710000
C      -45.28120000     -35.40390000     -71.89050000
C      -45.53450000     -36.59490000     -72.62760000
S      -48.49020000     -35.93700000     -69.67740000
S      -47.02080000     -37.40090000     -72.13070000
H      -44.83980000     -36.98650000     -73.36080000
