40
Properties=species:S:1:pos:R:3 #=T CELL(abcABC):=T 1.889726e+02=T 90.00000=T Traj:=T positionsangstrom=T Step:=T 0=T Bead:=T pbc="F F F"
C      -46.98360000     -30.06510000     -72.44600000
C      -46.69680000     -30.26160000     -71.07330000
C      -47.29450000     -31.34630000     -70.37830000
C      -48.17790000     -32.12100000     -71.09970000
C      -48.52110000     -31.88630000     -72.44290000
C      -47.92540000     -30.84850000     -73.09450000
H      -46.49830000     -29.22960000     -72.92700000
H      -47.17210000     -31.59980000     -69.32620000
H      -49.31040000     -32.46590000     -72.88730000
H      -48.29670000     -30.54520000     -74.08300000
C      -49.05510000     -33.04850000     -70.29100000
H      -49.80790000     -33.64030000     -70.93540000
H      -49.73140000     -32.48930000     -69.57660000
C      -45.69710000     -29.39660000     -70.29440000
H      -45.56310000     -28.43610000     -70.93410000
H      -46.04310000     -29.08020000     -69.27930000
S      -48.10200000     -34.19600000     -69.20600000
S      -44.13300000     -30.17960000     -69.77250000
C      -46.83140000     -34.99180000     -70.36210000
H      -47.29520000     -35.87770000     -70.74120000
H      -46.63890000     -34.31740000     -71.18780000
C      -43.58460000     -31.43280000     -70.97640000
H      -42.76290000     -31.92250000     -70.44250000
H      -43.06780000     -30.98170000     -71.85880000
C      -44.59840000     -32.44270000     -71.50620000
H      -45.14900000     -32.79170000     -70.65280000
H      -45.38480000     -32.02380000     -72.15010000
C      -45.53250000     -35.27340000     -69.55310000
H      -45.67120000     -36.09230000     -68.81670000
H      -45.36700000     -34.35990000     -69.00170000
C      -44.39680000     -35.64800000     -70.47730000
C      -44.09690000     -36.98270000     -70.58790000
C      -43.82600000     -34.89420000     -71.65750000
H      -44.30240000     -37.69210000     -69.85490000
C      -43.14040000     -35.77380000     -72.54740000
C      -43.78520000     -33.55300000     -72.26060000
C      -43.20190000     -33.43950000     -73.52370000
S      -43.15740000     -37.41590000     -72.02380000
S      -42.41500000     -34.99420000     -73.89160000
H      -43.16460000     -32.58860000     -74.14280000
