40
Properties=species:S:1:pos:R:3 #=T CELL(abcABC):=T 1.889726e+02=T 90.00000=T Traj:=T positionsangstrom=T Step:=T 0=T Bead:=T pbc="F F F"
C      -46.61300000     -29.64530000     -72.31700000
C      -45.98330000     -30.00950000     -71.13720000
C      -46.59370000     -30.87420000     -70.18920000
C      -47.91100000     -31.37690000     -70.35470000
C      -48.54020000     -31.03950000     -71.54770000
C      -47.90410000     -30.20750000     -72.52460000
H      -46.25760000     -28.88040000     -72.96730000
H      -46.04750000     -31.16160000     -69.28000000
H      -49.53900000     -31.54480000     -71.77380000
H      -48.41900000     -29.95070000     -73.43740000
C      -48.71370000     -32.10390000     -69.32430000
H      -49.71520000     -32.36200000     -69.72450000
H      -48.91650000     -31.51610000     -68.45730000
C      -44.64910000     -29.45870000     -70.90360000
H      -44.14670000     -29.07310000     -71.78050000
H      -44.53600000     -28.65900000     -70.18620000
S      -47.85080000     -33.54650000     -68.62680000
S      -43.39970000     -30.56060000     -70.15940000
C      -47.11190000     -34.17720000     -70.14680000
H      -47.76570000     -34.90740000     -70.69180000
H      -46.99950000     -33.33690000     -70.87280000
C      -42.94420000     -31.81570000     -71.41930000
H      -42.18460000     -32.48430000     -70.85020000
H      -42.47070000     -31.34690000     -72.29120000
C      -44.10480000     -32.68590000     -71.86670000
H      -44.84260000     -32.79270000     -71.05130000
H      -44.69000000     -32.14130000     -72.68450000
C      -45.82260000     -35.01260000     -69.80040000
H      -46.13260000     -35.67880000     -68.93320000
H      -45.06260000     -34.36030000     -69.39810000
C      -45.25670000     -35.81520000     -70.94980000
C      -45.45220000     -37.15950000     -71.04000000
C      -44.32330000     -35.32310000     -71.95150000
H      -46.11570000     -37.82590000     -70.44720000
C      -43.79430000     -36.33980000     -72.78560000
C      -43.75050000     -34.05460000     -72.38090000
C      -42.82370000     -34.15270000     -73.39580000
S      -44.49330000     -37.90080000     -72.34500000
S      -42.61650000     -35.73350000     -73.96450000
H      -42.34610000     -33.37510000     -73.95590000
