40
Properties=species:S:1:pos:R:3 #=T CELL(abcABC):=T 1.889726e+02=T 90.00000=T Traj:=T positionsangstrom=T Step:=T 0=T Bead:=T pbc="F F F"
C      -46.48010000     -29.56190000     -72.37170000
C      -45.83710000     -29.68240000     -71.08870000
C      -46.53780000     -30.45060000     -70.10420000
C      -47.82790000     -31.02120000     -70.32690000
C      -48.50920000     -30.65200000     -71.51090000
C      -47.82420000     -29.95180000     -72.55050000
H      -45.87630000     -29.09310000     -73.14730000
H      -45.96560000     -30.66230000     -69.24410000
H      -49.44810000     -31.09350000     -71.70600000
H      -48.49230000     -29.71280000     -73.44290000
C      -48.55620000     -31.91220000     -69.35190000
H      -49.40390000     -32.36140000     -69.85430000
H      -48.86160000     -31.31070000     -68.46150000
C      -44.38330000     -29.28000000     -70.89450000
H      -43.91100000     -28.96550000     -71.79330000
H      -44.32640000     -28.41590000     -70.19210000
S      -47.45330000     -33.31700000     -68.65530000
S      -43.36820000     -30.67980000     -70.22140000
C      -46.97060000     -34.32780000     -70.09010000
H      -47.91350000     -34.90990000     -70.33610000
H      -46.59180000     -33.73200000     -70.94750000
C      -43.27290000     -31.83320000     -71.65220000
H      -42.32460000     -32.25910000     -71.65590000
H      -43.46260000     -31.27430000     -72.62060000
C      -44.27120000     -32.96810000     -71.48320000
H      -44.49150000     -33.15340000     -70.40210000
H      -45.25440000     -32.62980000     -71.85430000
C      -45.85750000     -35.32870000     -69.71690000
H      -46.30580000     -36.03920000     -69.10870000
H      -45.08560000     -34.85140000     -69.12620000
C      -45.21340000     -36.08600000     -70.85080000
C      -45.36240000     -37.43580000     -71.06200000
C      -44.42550000     -35.50140000     -71.89890000
H      -45.66540000     -38.05880000     -70.30330000
C      -43.99680000     -36.45710000     -72.82280000
C      -43.98290000     -34.20520000     -72.24760000
C      -43.11420000     -34.22590000     -73.34910000
S      -44.47290000     -38.07080000     -72.39240000
S      -43.02360000     -35.79710000     -74.10080000
H      -42.58690000     -33.36790000     -73.74990000
