40
Properties=species:S:1:pos:R:3 #=T CELL(abcABC):=T 1.889726e+02=T 90.00000=T Traj:=T positionsangstrom=T Step:=T 0=T Bead:=T pbc="F F F"
C      -45.85640000     -30.35400000     -72.52540000
C      -45.46760000     -30.06350000     -71.18270000
C      -46.36110000     -30.47770000     -70.14030000
C      -47.54060000     -31.20610000     -70.45800000
C      -47.82490000     -31.54950000     -71.75540000
C      -46.98710000     -31.11000000     -72.80250000
H      -45.07710000     -30.22690000     -73.25140000
H      -46.11840000     -30.37620000     -69.07470000
H      -48.62100000     -32.17850000     -72.06570000
H      -47.16560000     -31.46380000     -73.84620000
C      -48.35730000     -31.74730000     -69.37100000
H      -49.26280000     -32.10730000     -69.84660000
H      -48.64040000     -30.99290000     -68.60290000
C      -44.17750000     -29.41040000     -70.97940000
H      -43.90220000     -28.70990000     -71.72470000
H      -44.20260000     -28.86700000     -70.03910000
S      -47.57410000     -33.09420000     -68.31130000
S      -42.63690000     -30.43250000     -70.65030000
C      -46.93900000     -34.08570000     -69.78750000
H      -47.80920000     -34.64310000     -70.13560000
H      -46.69480000     -33.43860000     -70.63490000
C      -42.72150000     -31.87800000     -71.79470000
H      -41.76950000     -32.28660000     -71.98490000
H      -43.11410000     -31.53220000     -72.72560000
C      -43.57070000     -33.00220000     -71.15970000
H      -43.11880000     -33.37150000     -70.20810000
H      -44.53860000     -32.58750000     -70.78780000
C      -45.81430000     -34.99270000     -69.39280000
H      -46.20530000     -35.58840000     -68.53800000
H      -44.85340000     -34.52950000     -69.20620000
C      -45.45610000     -35.84880000     -70.61180000
C      -45.84930000     -37.13180000     -70.77610000
C      -44.71810000     -35.31590000     -71.79470000
H      -46.44930000     -37.67980000     -70.03070000
C      -44.73500000     -36.25860000     -72.83460000
C      -43.89080000     -34.13390000     -72.13950000
C      -43.42810000     -34.26240000     -73.43280000
S      -45.51730000     -37.78470000     -72.39220000
S      -43.78520000     -35.75920000     -74.22160000
H      -42.89940000     -33.37400000     -73.87890000
