40
Properties=species:S:1:pos:R:3 #=T CELL(abcABC):=T 1.889726e+02=T 90.00000=T Traj:=T positionsangstrom=T Step:=T 0=T Bead:=T pbc="F F F"
C      -46.00690000     -30.33620000     -72.80090000
C      -45.34430000     -30.24130000     -71.61370000
C      -45.96460000     -30.70200000     -70.45190000
C      -47.26060000     -31.20850000     -70.42400000
C      -47.91840000     -31.24480000     -71.66840000
C      -47.23510000     -30.94740000     -72.85770000
H      -45.53060000     -30.02550000     -73.68840000
H      -45.33100000     -30.65890000     -69.51900000
H      -48.88000000     -31.62810000     -71.66670000
H      -47.74520000     -30.92600000     -73.82710000
C      -48.02210000     -31.49760000     -69.17000000
H      -49.09640000     -31.63730000     -69.36870000
H      -47.87740000     -30.67040000     -68.42220000
C      -44.04640000     -29.39990000     -71.55370000
H      -43.88500000     -28.97180000     -72.57590000
H      -44.19990000     -28.52430000     -70.84240000
S      -47.44050000     -32.97550000     -68.13830000
S      -42.58970000     -30.41080000     -70.89710000
C      -47.38970000     -34.40970000     -69.30020000
H      -47.73830000     -35.26320000     -68.76190000
H      -47.85040000     -34.32270000     -70.25830000
C      -42.69060000     -32.00720000     -71.82630000
H      -41.75970000     -32.52280000     -71.72820000
H      -42.80650000     -31.70700000     -72.89060000
C      -43.74940000     -32.96580000     -71.31680000
H      -43.50900000     -33.08060000     -70.25700000
H      -44.71000000     -32.50800000     -71.33020000
C      -45.91970000     -34.66360000     -69.54850000
H      -45.58610000     -35.11750000     -68.66160000
H      -45.47470000     -33.73060000     -69.72710000
C      -45.69200000     -35.67900000     -70.67300000
C      -46.49760000     -36.73550000     -70.92030000
C      -44.63590000     -35.46180000     -71.63370000
H      -47.33060000     -37.01940000     -70.28400000
C      -44.57380000     -36.54830000     -72.57180000
C      -43.77860000     -34.33350000     -71.95100000
C      -43.13950000     -34.50280000     -73.15870000
S      -45.92730000     -37.62940000     -72.45010000
S      -43.44750000     -36.09350000     -73.87660000
H      -42.56110000     -33.73730000     -73.57670000
