40
Properties=species:S:1:pos:R:3 #=T CELL(abcABC):=T 1.889726e+02=T 90.00000=T Traj:=T positionsangstrom=T Step:=T 0=T Bead:=T pbc="F F F"
C      -45.73520000     -30.75910000     -72.49480000
C      -45.37560000     -30.15030000     -71.27560000
C      -46.20770000     -30.31130000     -70.13840000
C      -47.36040000     -31.02820000     -70.29520000
C      -47.77880000     -31.49680000     -71.55530000
C      -46.93470000     -31.44870000     -72.64530000
H      -45.09630000     -30.53450000     -73.38100000
H      -45.97140000     -29.91450000     -69.20550000
H      -48.76310000     -32.03300000     -71.59780000
H      -47.26570000     -31.89190000     -73.53550000
C      -48.14070000     -31.35480000     -69.06460000
H      -49.24490000     -31.32760000     -69.16370000
H      -47.89080000     -30.75740000     -68.19910000
C      -44.04310000     -29.40210000     -71.20220000
H      -43.78930000     -29.01570000     -72.23070000
H      -44.14920000     -28.49250000     -70.57430000
S      -47.72730000     -33.06380000     -68.42420000
S      -42.67360000     -30.44690000     -70.64400000
C      -47.18770000     -34.15520000     -69.76210000
H      -47.89880000     -34.96670000     -69.94920000
H      -47.16090000     -33.50620000     -70.60820000
C      -42.84190000     -31.89470000     -71.76440000
H      -41.88900000     -32.40930000     -71.81520000
H      -43.10330000     -31.56140000     -72.82110000
C      -43.79300000     -32.97380000     -71.32620000
H      -43.54070000     -33.19950000     -70.32700000
H      -44.85110000     -32.58150000     -71.48740000
C      -45.84840000     -34.85670000     -69.46420000
H      -45.95430000     -35.30240000     -68.51730000
H      -45.05950000     -34.11740000     -69.34820000
C      -45.44260000     -35.71450000     -70.64090000
C      -46.04310000     -36.92510000     -70.78870000
C      -44.67480000     -35.31510000     -71.85810000
H      -46.66150000     -37.46310000     -70.10660000
C      -44.61260000     -36.38040000     -72.79210000
C      -43.89180000     -34.14370000     -72.23920000
C      -43.35040000     -34.29990000     -73.47170000
S      -45.56660000     -37.74900000     -72.31170000
S      -43.68640000     -35.93720000     -74.24550000
H      -42.84480000     -33.45370000     -74.02530000
