40
Properties=species:S:1:pos:R:3 #=T CELL(abcABC):=T 1.889726e+02=T 90.00000=T Traj:=T positionsangstrom=T Step:=T 0=T Bead:=T pbc="F F F"
C      -45.80660000     -30.63610000     -72.63760000
C      -45.31710000     -30.09400000     -71.43940000
C      -46.09000000     -30.21030000     -70.28870000
C      -47.19730000     -31.02540000     -70.27210000
C      -47.67380000     -31.63550000     -71.46850000
C      -47.01930000     -31.38830000     -72.66340000
H      -45.17910000     -30.52170000     -73.55680000
H      -45.71630000     -29.85740000     -69.33410000
H      -48.69370000     -32.09990000     -71.46960000
H      -47.38690000     -31.81330000     -73.59100000
C      -48.01410000     -31.27230000     -68.98270000
H      -49.08140000     -31.12120000     -69.24630000
H      -47.73970000     -30.48160000     -68.23240000
C      -44.05380000     -29.39600000     -71.41810000
H      -43.69850000     -29.18460000     -72.43820000
H      -44.13650000     -28.48400000     -70.82920000
S      -47.78300000     -32.99290000     -68.22460000
S      -42.77390000     -30.53400000     -70.64760000
C      -47.42800000     -34.21400000     -69.65660000
H      -48.06540000     -35.10340000     -69.54820000
H      -47.70660000     -33.67160000     -70.60080000
C      -42.76470000     -31.92290000     -71.87140000
H      -41.72760000     -32.22040000     -71.94820000
H      -43.06590000     -31.63110000     -72.84780000
C      -43.57810000     -33.02050000     -71.32430000
H      -43.14690000     -33.38930000     -70.39940000
H      -44.53990000     -32.50970000     -71.06770000
C      -45.98060000     -34.63410000     -69.59540000
H      -45.68900000     -35.09530000     -68.61690000
H      -45.33150000     -33.74200000     -69.62480000
C      -45.70370000     -35.61790000     -70.77760000
C      -46.17870000     -36.90800000     -70.88800000
C      -44.72900000     -35.32700000     -71.82950000
H      -46.85450000     -37.45080000     -70.22750000
C      -44.61730000     -36.36940000     -72.77840000
C      -43.90770000     -34.17840000     -72.20600000
C      -43.29760000     -34.41810000     -73.43570000
S      -45.50270000     -37.77290000     -72.34100000
S      -43.58850000     -36.03140000     -74.11180000
H      -42.42520000     -33.95550000     -73.88360000
