40
Properties=species:S:1:pos:R:3 #=T CELL(abcABC):=T 1.889726e+02=T 90.00000=T Traj:=T positionsangstrom=T Step:=T 0=T Bead:=T pbc="F F F"
C      -48.59670000     -33.63030000     -71.24060000
C      -48.29630000     -33.19330000     -72.53240000
C      -47.81890000     -31.91480000     -72.75380000
C      -47.67580000     -30.99130000     -71.67540000
C      -47.86270000     -31.46340000     -70.39160000
C      -48.36270000     -32.74910000     -70.13230000
H      -48.83430000     -34.63700000     -71.04030000
H      -47.72020000     -31.41280000     -73.71050000
H      -47.78770000     -30.79230000     -69.51250000
H      -48.47050000     -33.13050000     -69.06720000
C      -47.01520000     -29.62700000     -71.86220000
H      -47.04150000     -28.95550000     -70.98290000
H      -47.41830000     -29.11480000     -72.70300000
C      -48.32140000     -34.17810000     -73.69750000
H      -48.87230000     -35.12580000     -73.55740000
H      -48.93870000     -33.69900000     -74.57770000
S      -45.23090000     -29.61200000     -72.25190000
S      -46.64960000     -34.48450000     -74.41090000
C      -44.60680000     -30.61350000     -70.81800000
H      -43.70550000     -30.15320000     -70.44490000
H      -45.23640000     -30.71810000     -69.91590000
C      -45.71350000     -35.26040000     -73.04820000
H      -45.80540000     -36.32650000     -73.11120000
H      -46.12860000     -35.00360000     -72.07250000
C      -44.15410000     -35.05730000     -73.03040000
H      -43.59660000     -35.70940000     -73.75700000
H      -43.98370000     -34.00840000     -73.15810000
C      -44.23840000     -32.00590000     -71.42610000
H      -43.43850000     -31.78690000     -72.18730000
H      -45.18320000     -32.30800000     -71.98900000
C      -43.82050000     -33.02750000     -70.36870000
C      -43.51560000     -32.60350000     -69.09590000
C      -43.53280000     -34.44460000     -70.56300000
H      -43.44200000     -31.62030000     -68.73580000
C      -43.06910000     -35.06970000     -69.41470000
C      -43.70200000     -35.41950000     -71.63510000
C      -43.36010000     -36.75480000     -71.26570000
S      -42.94210000     -33.96050000     -68.10170000
S      -42.93670000     -36.81700000     -69.56030000
H      -43.36870000     -37.65810000     -71.86100000
