40
Properties=species:S:1:pos:R:3 #=T CELL(abcABC):=T 1.889726e+02=T 90.00000=T Traj:=T positionsangstrom=T Step:=T 0=T Bead:=T pbc="F F F"
C      -46.23890000     -29.23590000     -72.70450000
C      -45.18670000     -29.75240000     -71.88600000
C      -45.53900000     -30.27250000     -70.62110000
C      -46.86580000     -30.24320000     -70.20040000
C      -47.87690000     -29.90860000     -71.10840000
C      -47.57260000     -29.30390000     -72.32570000
H      -46.05780000     -28.78410000     -73.65090000
H      -44.85750000     -30.64140000     -69.92300000
H      -48.93160000     -30.04460000     -70.75270000
H      -48.34470000     -28.85450000     -73.01300000
C      -47.35160000     -30.73160000     -68.84760000
H      -48.40850000     -31.00870000     -68.68490000
H      -47.14170000     -30.00690000     -67.99930000
C      -43.74150000     -29.82820000     -72.28460000
H      -43.67900000     -29.90590000     -73.37540000
H      -43.21910000     -28.89870000     -72.10790000
S      -46.52880000     -32.28950000     -68.22640000
S      -42.78470000     -31.09920000     -71.40120000
C      -46.97370000     -33.63750000     -69.44440000
H      -47.88540000     -34.21270000     -69.26650000
H      -46.96260000     -33.14240000     -70.47910000
C      -43.57300000     -32.68880000     -71.86480000
H      -43.68660000     -32.89490000     -72.91230000
H      -44.59650000     -32.71780000     -71.47240000
C      -42.93210000     -33.98350000     -71.22400000
H      -41.78090000     -34.09130000     -71.25360000
H      -43.09700000     -34.04400000     -70.10530000
C      -45.84710000     -34.73790000     -69.49120000
H      -46.02690000     -35.40770000     -68.68480000
H      -44.84440000     -34.21700000     -69.43050000
C      -45.94670000     -35.65120000     -70.72030000
C      -46.99140000     -36.49920000     -70.97470000
C      -44.93750000     -35.75630000     -71.72880000
H      -47.91530000     -36.59960000     -70.39180000
C      -45.12370000     -36.82260000     -72.64200000
C      -43.51530000     -35.28310000     -71.86230000
C      -42.82740000     -36.00270000     -72.84220000
S      -46.65380000     -37.50990000     -72.36620000
S      -43.82980000     -37.18560000     -73.64380000
H      -41.78570000     -35.89270000     -73.07630000
