40
Properties=species:S:1:pos:R:3 #=T CELL(abcABC):=T 1.889726e+02=T 90.00000=T Traj:=T positionsangstrom=T Step:=T 0=T Bead:=T pbc="F F F"
C      -46.13370000     -29.86920000     -72.68370000
C      -45.21680000     -29.87870000     -71.59910000
C      -45.67030000     -30.17560000     -70.29930000
C      -47.09660000     -30.43430000     -70.10810000
C      -47.96280000     -30.36750000     -71.19590000
C      -47.45660000     -30.16980000     -72.49050000
H      -45.75830000     -29.59220000     -73.69000000
H      -45.00340000     -30.33240000     -69.42020000
H      -49.03660000     -30.49840000     -71.18920000
H      -48.06170000     -30.27350000     -73.36150000
C      -47.56170000     -30.79930000     -68.72130000
H      -48.69480000     -30.85130000     -68.69290000
H      -47.24280000     -30.03390000     -68.01910000
C      -43.71070000     -29.57860000     -71.85110000
H      -43.53410000     -29.33420000     -72.86580000
H      -43.31430000     -28.80620000     -71.19300000
S      -46.64380000     -32.34370000     -68.25840000
S      -42.68490000     -31.01970000     -71.38090000
C      -46.42720000     -33.32660000     -69.84210000
H      -47.41120000     -33.39340000     -70.44690000
H      -45.74030000     -32.82430000     -70.54130000
C      -43.29960000     -32.53910000     -72.13620000
H      -42.82140000     -32.66810000     -73.13390000
H      -44.37870000     -32.35170000     -72.29740000
C      -43.15520000     -33.78070000     -71.21860000
H      -42.12700000     -33.90920000     -70.91450000
H      -43.79320000     -33.63230000     -70.35790000
C      -46.09480000     -34.70760000     -69.45390000
H      -46.78970000     -35.20180000     -68.73360000
H      -45.18950000     -34.72040000     -68.85100000
C      -45.98240000     -35.59180000     -70.72430000
C      -46.92070000     -36.57400000     -70.96840000
C      -44.92740000     -35.72710000     -71.70350000
H      -47.81680000     -36.67090000     -70.40640000
C      -45.11900000     -36.73660000     -72.66140000
C      -43.60670000     -35.09810000     -71.87660000
C      -42.85470000     -35.70810000     -72.84440000
S      -46.69800000     -37.50580000     -72.45970000
S      -43.73190000     -36.97340000     -73.66580000
H      -41.87360000     -35.33560000     -73.11850000
