40
Properties=species:S:1:pos:R:3 #=T CELL(abcABC):=T 1.889726e+02=T 90.00000=T Traj:=T positionsangstrom=T Step:=T 0=T Bead:=T pbc="F F F"
C      -46.02150000     -31.64530000     -75.08980000
C      -45.30800000     -32.81310000     -74.83170000
C      -46.05330000     -33.96020000     -74.45960000
C      -47.46970000     -33.87120000     -74.30320000
C      -48.08340000     -32.65160000     -74.44550000
C      -47.34870000     -31.52640000     -74.91030000
H      -45.31790000     -30.82150000     -75.41530000
H      -45.60450000     -34.99410000     -74.39400000
H      -49.16550000     -32.56830000     -74.42260000
H      -47.92580000     -30.69510000     -75.18160000
C      -48.26700000     -35.01600000     -73.57270000
H      -47.61000000     -35.86900000     -73.34710000
H      -49.01960000     -35.45210000     -74.15670000
C      -43.80880000     -32.83560000     -74.81860000
H      -43.38360000     -33.79670000     -74.47720000
H      -43.41260000     -32.64020000     -75.79740000
S      -48.82470000     -34.39150000     -71.93550000
S      -43.07330000     -31.46180000     -73.68950000
C      -47.26810000     -34.64800000     -71.01390000
H      -47.44360000     -35.39120000     -70.18130000
H      -46.56700000     -35.27720000     -71.48310000
C      -43.96370000     -31.99680000     -72.11290000
H      -45.13620000     -31.88840000     -72.17170000
H      -43.70300000     -31.17430000     -71.36980000
C      -43.58770000     -33.41770000     -71.61750000
H      -44.31100000     -34.10860000     -72.02980000
H      -42.62400000     -33.64820000     -72.04240000
C      -46.74220000     -33.31190000     -70.33140000
H      -47.69160000     -32.80280000     -70.06880000
H      -46.07490000     -32.68700000     -71.00050000
C      -45.89200000     -33.64060000     -69.08560000
C      -46.39760000     -33.71600000     -67.81690000
C      -44.42840000     -33.79130000     -69.16600000
H      -47.34900000     -33.77690000     -67.45100000
C      -43.92980000     -34.04750000     -67.86190000
C      -43.41780000     -33.66050000     -70.17540000
C      -42.17970000     -33.82780000     -69.62180000
S      -45.13550000     -33.84070000     -66.61590000
S      -42.20520000     -34.01240000     -67.83350000
H      -41.22100000     -33.42940000     -70.07650000
