40
Properties=species:S:1:pos:R:3 #=T CELL(abcABC):=T 1.889726e+02=T 90.00000=T Traj:=T positionsangstrom=T Step:=T 0=T Bead:=T pbc="F F F"
C      -45.97960000     -30.45950000     -72.70170000
C      -45.34310000     -30.24220000     -71.46600000
C      -46.07270000     -30.55370000     -70.34340000
C      -47.42840000     -31.00200000     -70.36370000
C      -48.00040000     -31.13740000     -71.59290000
C      -47.28070000     -30.86020000     -72.77520000
H      -45.46840000     -30.15310000     -73.62740000
H      -45.69600000     -30.55120000     -69.39910000
H      -48.98750000     -31.64920000     -71.60230000
H      -47.64130000     -31.01110000     -73.77550000
C      -48.15210000     -31.33220000     -69.10610000
H      -49.10080000     -31.84850000     -69.37340000
H      -48.37320000     -30.50240000     -68.42490000
C      -44.02050000     -29.51420000     -71.36480000
H      -43.82960000     -29.12060000     -72.40650000
H      -44.08160000     -28.67980000     -70.64830000
S      -47.23220000     -32.62780000     -68.19750000
S      -42.64400000     -30.63290000     -70.79050000
C      -47.12890000     -33.93850000     -69.45580000
H      -47.91560000     -34.66090000     -69.31160000
H      -47.31820000     -33.41560000     -70.35920000
C      -42.71380000     -32.09970000     -71.83530000
H      -41.78440000     -32.32940000     -72.42110000
H      -43.51750000     -31.94480000     -72.54270000
C      -43.12860000     -33.46630000     -71.17430000
H      -42.22690000     -33.81020000     -70.64520000
H      -43.86170000     -33.24560000     -70.36890000
C      -45.76280000     -34.73860000     -69.42740000
H      -45.78790000     -35.29040000     -68.50880000
H      -44.92170000     -34.02090000     -69.22110000
C      -45.67260000     -35.64020000     -70.68420000
C      -46.50870000     -36.68430000     -70.90660000
C      -44.69350000     -35.40420000     -71.80500000
H      -47.39730000     -37.01370000     -70.35730000
C      -44.86970000     -36.34590000     -72.77360000
C      -43.56330000     -34.51380000     -72.09620000
C      -42.88200000     -34.93670000     -73.23500000
S      -46.17850000     -37.49030000     -72.51540000
S      -43.66220000     -36.31080000     -74.00590000
H      -41.94770000     -34.49270000     -73.69000000
