40
Properties=species:S:1:pos:R:3 #=T CELL(abcABC):=T 1.889726e+02=T 90.00000=T Traj:=T positionsangstrom=T Step:=T 0=T Bead:=T pbc="F F F"
C      -46.49310000     -31.14430000     -74.95220000
C      -45.82060000     -32.29770000     -74.49630000
C      -46.54120000     -33.38060000     -73.89580000
C      -47.86850000     -33.24070000     -73.65310000
C      -48.51340000     -32.03200000     -74.04320000
C      -47.85140000     -31.06400000     -74.74030000
H      -46.03990000     -30.28520000     -75.39030000
H      -45.97270000     -34.22970000     -73.62740000
H      -49.54510000     -31.80150000     -73.82690000
H      -48.42140000     -30.20340000     -75.07000000
C      -48.57150000     -34.38360000     -72.94440000
H      -47.82830000     -35.21670000     -72.79910000
H      -49.33230000     -34.81920000     -73.65580000
C      -44.36490000     -32.27220000     -74.74640000
H      -43.82540000     -33.19080000     -74.40160000
H      -44.19730000     -32.08500000     -75.79600000
S      -49.18940000     -34.05880000     -71.29910000
S      -43.59310000     -30.88430000     -73.68770000
C      -47.79380000     -34.75800000     -70.18280000
H      -48.21210000     -34.58290000     -69.20110000
H      -47.70150000     -35.78150000     -70.41790000
C      -43.92300000     -31.56490000     -71.94370000
H      -44.99090000     -31.38090000     -71.70980000
H      -43.22110000     -30.91070000     -71.34830000
C      -43.60990000     -33.05860000     -71.91080000
H      -44.52860000     -33.46990000     -72.18960000
H      -42.83150000     -33.32450000     -72.63290000
C      -46.43210000     -34.11770000     -70.44200000
H      -46.40620000     -33.02400000     -70.35540000
H      -46.20300000     -34.39320000     -71.44670000
C      -45.36850000     -34.63030000     -69.49750000
C      -45.65250000     -35.32660000     -68.36920000
C      -44.01810000     -34.17820000     -69.47800000
H      -46.60750000     -35.73510000     -68.07170000
C      -43.29420000     -34.56380000     -68.33710000
C      -43.16330000     -33.45080000     -70.44040000
C      -41.92230000     -33.34390000     -69.93120000
S      -44.31800000     -35.39800000     -67.25700000
S      -41.64130000     -34.07540000     -68.37600000
H      -41.16970000     -32.70230000     -70.44300000
