40
Properties=species:S:1:pos:R:3 #=T CELL(abcABC):=T 1.889726e+02=T 90.00000=T Traj:=T positionsangstrom=T Step:=T 0=T Bead:=T pbc="F F F"
C      -45.85360000     -28.79040000     -72.44810000
C      -45.04790000     -29.66600000     -71.71310000
C      -45.58230000     -30.19870000     -70.56480000
C      -46.93340000     -30.03890000     -70.26970000
C      -47.74140000     -29.20780000     -70.99900000
C      -47.18940000     -28.59640000     -72.06790000
H      -45.38250000     -28.29260000     -73.29600000
H      -44.90980000     -30.89180000     -70.08510000
H      -48.78150000     -29.17710000     -70.92380000
H      -47.91630000     -28.06240000     -72.72130000
C      -47.56130000     -30.65050000     -69.02460000
H      -48.63370000     -30.63460000     -69.15900000
H      -47.47540000     -29.94180000     -68.14340000
C      -43.66970000     -29.94420000     -72.26880000
H      -43.88290000     -30.20980000     -73.33250000
H      -43.07130000     -29.04210000     -72.18710000
S      -46.93400000     -32.24440000     -68.42260000
S      -42.76470000     -31.28480000     -71.50000000
C      -46.95220000     -33.35970000     -69.89180000
H      -47.94630000     -33.94670000     -69.86490000
H      -46.83350000     -32.89170000     -70.88370000
C      -43.42010000     -32.82770000     -72.30640000
H      -43.06160000     -32.90890000     -73.37150000
H      -44.52890000     -32.90910000     -72.37670000
C      -43.00430000     -34.06960000     -71.51540000
H      -41.87210000     -34.00220000     -71.40560000
H      -43.37410000     -33.90870000     -70.50140000
C      -45.87920000     -34.48270000     -69.65530000
H      -46.01590000     -35.03380000     -68.68450000
H      -44.91140000     -34.02590000     -69.69960000
C      -45.92230000     -35.58990000     -70.72170000
C      -46.96120000     -36.50020000     -70.80880000
C      -44.83120000     -35.85340000     -71.66490000
H      -47.89950000     -36.37560000     -70.33610000
C      -45.18410000     -36.97910000     -72.43230000
C      -43.52480000     -35.39210000     -72.03130000
C      -42.79310000     -36.29150000     -72.82470000
S      -46.66920000     -37.73820000     -72.04350000
S      -43.83050000     -37.61820000     -73.39610000
H      -41.74210000     -36.25960000     -73.18000000
