40
Properties=species:S:1:pos:R:3 #=T CELL(abcABC):=T 1.889726e+02=T 90.00000=T Traj:=T positionsangstrom=T Step:=T 0=T Bead:=T pbc="F F F"
C      -48.17720000     -33.67560000     -71.27790000
C      -48.06980000     -33.15480000     -72.58170000
C      -47.72080000     -31.76940000     -72.72620000
C      -47.37090000     -30.94650000     -71.63650000
C      -47.49190000     -31.55520000     -70.35580000
C      -47.83390000     -32.93290000     -70.19650000
H      -48.53580000     -34.76670000     -71.24470000
H      -47.55040000     -31.39840000     -73.71480000
H      -47.24820000     -30.95890000     -69.49520000
H      -47.77740000     -33.39830000     -69.26070000
C      -46.91430000     -29.51270000     -71.76060000
H      -47.06020000     -29.04500000     -70.81990000
H      -47.46190000     -28.90390000     -72.47270000
C      -48.30250000     -34.07120000     -73.81400000
H      -48.94220000     -34.97970000     -73.40480000
H      -48.87090000     -33.55170000     -74.63650000
S      -45.08270000     -29.40820000     -72.27660000
S      -46.79500000     -34.76650000     -74.55560000
C      -44.28670000     -30.53210000     -71.01510000
H      -43.24880000     -30.21180000     -70.78810000
H      -44.88300000     -30.50600000     -70.12360000
C      -45.96880000     -35.55740000     -73.08980000
H      -46.19920000     -36.66160000     -72.87550000
H      -46.35920000     -34.96210000     -72.32230000
C      -44.46310000     -35.14720000     -72.97860000
H      -43.77580000     -35.55950000     -73.73820000
H      -44.30490000     -34.02650000     -73.16510000
C      -44.17830000     -32.02510000     -71.46500000
H      -43.56390000     -32.09450000     -72.44110000
H      -45.21610000     -32.33300000     -71.77820000
C      -43.77980000     -32.95300000     -70.38930000
C      -43.46630000     -32.61050000     -69.07960000
C      -43.77010000     -34.42140000     -70.54340000
H      -43.27830000     -31.51970000     -68.75540000
C      -43.32760000     -35.01620000     -69.36720000
C      -43.96720000     -35.42380000     -71.57940000
C      -43.69130000     -36.72810000     -71.11470000
S      -43.00690000     -33.94010000     -68.07200000
S      -43.23140000     -36.73800000     -69.40010000
H      -43.86390000     -37.60980000     -71.76610000
