40
Properties=species:S:1:pos:R:3 #=T CELL(abcABC):=T 1.889726e+02=T 90.00000=T Traj:=T positionsangstrom=T Step:=T 0=T Bead:=T pbc="F F F"
C      -45.92240000     -28.74440000     -72.45470000
C      -45.07090000     -29.58860000     -71.69320000
C      -45.63400000     -30.24040000     -70.56830000
C      -46.99770000     -30.06350000     -70.26960000
C      -47.73450000     -29.19820000     -71.04890000
C      -47.24400000     -28.41820000     -72.06190000
H      -45.47830000     -28.17830000     -73.24370000
H      -44.98650000     -30.85840000     -69.94740000
H      -48.75240000     -28.93450000     -70.64350000
H      -47.79660000     -27.68030000     -72.66660000
C      -47.62140000     -30.70450000     -69.05850000
H      -48.71280000     -30.91160000     -69.10550000
H      -47.43450000     -30.02810000     -68.26960000
C      -43.64960000     -29.85270000     -72.20040000
H      -43.47170000     -29.83520000     -73.24870000
H      -42.93970000     -29.04820000     -71.83560000
S      -46.83200000     -32.29030000     -68.47510000
S      -42.83220000     -31.39120000     -71.46870000
C      -46.97260000     -33.51370000     -69.84230000
H      -47.93440000     -33.94380000     -69.77960000
H      -46.94640000     -33.08760000     -70.85280000
C      -43.44980000     -32.90350000     -72.44240000
H      -42.99120000     -32.89290000     -73.42810000
H      -44.54620000     -33.00900000     -72.51640000
C      -42.92660000     -34.06660000     -71.65880000
H      -41.89380000     -34.20020000     -71.68190000
H      -43.08160000     -33.99430000     -70.64660000
C      -45.78990000     -34.46430000     -69.67340000
H      -45.72720000     -34.74190000     -68.60370000
H      -44.84240000     -33.94630000     -69.93380000
C      -45.92420000     -35.54180000     -70.68750000
C      -46.98140000     -36.39530000     -70.84890000
C      -44.86000000     -35.91160000     -71.63480000
H      -47.91110000     -36.35920000     -70.26170000
C      -45.08980000     -37.17370000     -72.26180000
C      -43.59390000     -35.35890000     -72.04370000
C      -42.89260000     -36.09620000     -72.98720000
S      -46.71520000     -37.69990000     -72.01790000
S      -43.73190000     -37.61350000     -73.31710000
H      -41.94510000     -35.80330000     -73.42820000
