40
Properties=species:S:1:pos:R:3 #=T CELL(abcABC):=T 1.889726e+02=T 90.00000=T Traj:=T positionsangstrom=T Step:=T 0=T Bead:=T pbc="F F F"
C      -46.62970000     -31.02470000     -74.95280000
C      -45.87970000     -32.19150000     -74.59880000
C      -46.49530000     -33.31260000     -74.11700000
C      -47.83070000     -33.25400000     -73.69260000
C      -48.53720000     -32.08540000     -73.93210000
C      -47.97060000     -31.04460000     -74.65870000
H      -46.25930000     -30.17670000     -75.43140000
H      -45.90010000     -34.23300000     -73.94360000
H      -49.60230000     -31.87310000     -73.66160000
H      -48.55520000     -30.14260000     -74.75350000
C      -48.58830000     -34.45660000     -73.12760000
H      -48.10860000     -35.39780000     -73.17170000
H      -49.50710000     -34.53260000     -73.65820000
C      -44.37310000     -32.09090000     -74.77240000
H      -43.82130000     -33.00990000     -74.64450000
H      -44.15370000     -31.81500000     -75.79660000
S      -49.12400000     -34.07150000     -71.31310000
S      -43.62660000     -30.87890000     -73.62880000
C      -47.81740000     -34.85660000     -70.32980000
H      -48.04550000     -34.56110000     -69.26030000
H      -47.87400000     -35.99540000     -70.30530000
C      -43.90550000     -31.61360000     -71.98180000
H      -44.89050000     -31.60860000     -71.60900000
H      -43.25860000     -30.93980000     -71.34510000
C      -43.40540000     -33.04720000     -71.80620000
H      -44.06560000     -33.79330000     -72.33080000
H      -42.39710000     -33.16070000     -72.29100000
C      -46.37980000     -34.31350000     -70.57960000
H      -46.45730000     -33.15050000     -70.71110000
H      -45.89810000     -34.73350000     -71.44280000
C      -45.41250000     -34.54680000     -69.46720000
C      -45.72630000     -35.15140000     -68.29350000
C      -44.01400000     -34.16840000     -69.51010000
H      -46.69090000     -35.56410000     -67.96020000
C      -43.36420000     -34.51740000     -68.33970000
C      -43.08720000     -33.45410000     -70.39050000
C      -41.84450000     -33.32440000     -69.87440000
S      -44.30390000     -35.41910000     -67.24400000
S      -41.68280000     -34.15920000     -68.26180000
H      -40.99090000     -33.09760000     -70.53020000
