40
Properties=species:S:1:pos:R:3 #=T CELL(abcABC):=T 1.889726e+02=T 90.00000=T Traj:=T positionsangstrom=T Step:=T 0=T Bead:=T pbc="F F F"
C      -46.84140000     -30.80060000     -74.74020000
C      -45.95660000     -31.90950000     -74.53800000
C      -46.49170000     -33.09680000     -74.07870000
C      -47.86220000     -33.28740000     -73.90800000
C      -48.71630000     -32.15400000     -74.03460000
C      -48.23190000     -30.91990000     -74.48830000
H      -46.48990000     -29.80020000     -75.00700000
H      -45.80270000     -34.00050000     -73.91000000
H      -49.83160000     -32.22030000     -73.97980000
H      -48.84310000     -30.07050000     -74.71060000
C      -48.38780000     -34.51680000     -73.25140000
H      -47.60000000     -35.35340000     -73.22730000
H      -49.27980000     -34.92880000     -73.73440000
C      -44.47660000     -31.94730000     -74.86310000
H      -44.14160000     -32.96860000     -74.92560000
H      -44.24550000     -31.40300000     -75.84590000
S      -48.98460000     -34.08160000     -71.54430000
S      -43.60460000     -30.98670000     -73.61080000
C      -47.72530000     -34.77130000     -70.36840000
H      -48.12690000     -34.68130000     -69.38730000
H      -47.75870000     -35.83640000     -70.50780000
C      -43.99200000     -31.75320000     -71.98470000
H      -45.06730000     -31.81170000     -71.81830000
H      -43.71850000     -31.06170000     -71.21180000
C      -43.26000000     -33.11450000     -71.81980000
H      -43.82270000     -33.85000000     -72.40510000
H      -42.36280000     -33.09410000     -72.36600000
C      -46.30750000     -34.26180000     -70.59470000
H      -46.31190000     -33.21450000     -70.70630000
H      -45.96250000     -34.70920000     -71.58310000
C      -45.35320000     -34.66740000     -69.49440000
C      -45.73090000     -35.24730000     -68.30680000
C      -43.99200000     -34.24350000     -69.42880000
H      -46.74730000     -35.57180000     -68.03180000
C      -43.34770000     -34.56950000     -68.25190000
C      -43.00100000     -33.58750000     -70.35250000
C      -41.74970000     -33.56100000     -69.85060000
S      -44.48680000     -35.34310000     -67.08700000
S      -41.58690000     -34.13130000     -68.20700000
H      -40.79220000     -33.29090000     -70.27680000
