40
Properties=species:S:1:pos:R:3 #=T CELL(abcABC):=T 1.889726e+02=T 90.00000=T Traj:=T positionsangstrom=T Step:=T 0=T Bead:=T pbc="F F F"
C      -46.82690000     -31.10830000     -75.18900000
C      -45.97860000     -32.11220000     -74.71020000
C      -46.48520000     -33.20260000     -73.98330000
C      -47.87590000     -33.26050000     -73.69660000
C      -48.68460000     -32.30360000     -74.26320000
C      -48.16570000     -31.17050000     -74.87290000
H      -46.40740000     -30.30690000     -75.78730000
H      -45.73800000     -33.98440000     -73.62640000
H      -49.76450000     -32.46910000     -74.12860000
H      -48.91450000     -30.39890000     -75.19330000
C      -48.48060000     -34.41140000     -72.88460000
H      -47.76990000     -35.28270000     -72.74600000
H      -49.42030000     -34.72530000     -73.35280000
C      -44.51230000     -32.17380000     -74.93150000
H      -44.17510000     -33.21040000     -74.87390000
H      -44.14200000     -31.88000000     -75.95560000
S      -49.09100000     -33.84010000     -71.23950000
S      -43.46000000     -31.07120000     -73.87930000
C      -47.81260000     -34.56370000     -70.09250000
H      -48.11880000     -34.40550000     -69.09190000
H      -47.90380000     -35.61560000     -70.22690000
C      -43.76900000     -31.60940000     -72.08010000
H      -44.86570000     -31.49470000     -71.97920000
H      -43.11910000     -30.94960000     -71.43770000
C      -43.56490000     -33.15080000     -71.80940000
H      -44.50270000     -33.72350000     -72.13230000
H      -42.74890000     -33.61280000     -72.42710000
C      -46.41960000     -34.11780000     -70.30940000
H      -46.32130000     -32.97640000     -70.33990000
H      -46.04360000     -34.47230000     -71.29830000
C      -45.39580000     -34.58900000     -69.36410000
C      -45.67350000     -35.37530000     -68.23270000
C      -43.97170000     -34.20160000     -69.42350000
H      -46.71400000     -35.77010000     -68.20410000
C      -43.30580000     -34.56130000     -68.24660000
C      -43.14400000     -33.42030000     -70.32590000
C      -41.85390000     -33.25700000     -69.83870000
S      -44.28340000     -35.47530000     -67.12790000
S      -41.61760000     -34.08240000     -68.25410000
H      -41.03030000     -32.79710000     -70.38740000
