40
Properties=species:S:1:pos:R:3 #=T CELL(abcABC):=T 1.889726e+02=T 90.00000=T Traj:=T positionsangstrom=T Step:=T 0=T Bead:=T pbc="F F F"
C      -46.80790000     -30.13610000     -73.60050000
C      -45.92060000     -31.15340000     -73.93230000
C      -46.43880000     -32.42480000     -74.06050000
C      -47.76880000     -32.72800000     -73.70470000
C      -48.60380000     -31.70230000     -73.18720000
C      -48.12190000     -30.44860000     -73.16340000
H      -46.45060000     -29.13460000     -73.49630000
H      -45.80020000     -33.21840000     -74.39490000
H      -49.61160000     -31.86360000     -72.87190000
H      -48.76340000     -29.66220000     -72.83660000
C      -48.25050000     -34.13710000     -73.93680000
H      -47.60070000     -34.72130000     -74.54550000
H      -49.24950000     -34.13280000     -74.43350000
C      -44.41640000     -30.96410000     -74.29040000
H      -44.00470000     -31.80120000     -74.83100000
H      -44.48550000     -30.07590000     -74.85440000
S      -48.59690000     -34.92970000     -72.31190000
S      -43.34100000     -30.48290000     -72.86600000
C      -46.85940000     -35.07010000     -71.60030000
H      -46.72610000     -36.09850000     -71.20710000
H      -46.09740000     -34.75870000     -72.34650000
C      -43.88370000     -31.62700000     -71.53060000
H      -44.91930000     -31.43060000     -71.24620000
H      -43.19940000     -31.27880000     -70.73060000
C      -43.57050000     -33.12540000     -71.84990000
H      -44.38500000     -33.49500000     -72.38290000
H      -42.68400000     -33.10980000     -72.48710000
C      -46.73830000     -34.02650000     -70.46090000
H      -47.63570000     -33.90780000     -69.88450000
H      -46.58370000     -33.05380000     -70.96650000
C      -45.61350000     -34.43490000     -69.51530000
C      -46.09240000     -35.01120000     -68.32510000
C      -44.17960000     -34.42930000     -69.65690000
H      -47.13730000     -35.18180000     -68.09850000
C      -43.54750000     -35.11210000     -68.60440000
C      -43.24810000     -33.90510000     -70.59900000
C      -41.90790000     -34.13370000     -70.20580000
S      -44.77300000     -35.68190000     -67.41010000
S      -41.76460000     -35.10250000     -68.69550000
H      -41.02820000     -34.06840000     -70.86420000
