40
Properties=species:S:1:pos:R:3 #=T CELL(abcABC):=T 1.889726e+02=T 90.00000=T Traj:=T positionsangstrom=T Step:=T 0=T Bead:=T pbc="F F F"
C      -44.93450000     -30.38210000     -73.00840000
C      -44.31980000     -30.24200000     -71.76210000
C      -45.15010000     -30.21150000     -70.62520000
C      -46.52530000     -30.50370000     -70.76560000
C      -47.06810000     -30.94280000     -71.96640000
C      -46.23550000     -30.86330000     -73.06920000
H      -44.45110000     -30.47090000     -73.97730000
H      -44.67150000     -30.02350000     -69.66900000
H      -48.10550000     -31.37720000     -72.03130000
H      -46.59740000     -31.18340000     -74.08320000
C      -47.40110000     -30.42240000     -69.58530000
H      -48.45700000     -30.30350000     -69.95500000
H      -47.24700000     -29.50150000     -68.92360000
C      -42.81430000     -29.92120000     -71.72360000
H      -42.45210000     -29.78950000     -72.76100000
H      -42.49010000     -29.07400000     -71.04640000
S      -47.15000000     -31.80910000     -68.44630000
S      -41.83700000     -31.36930000     -71.00420000
C      -47.29600000     -33.22540000     -69.62870000
H      -48.34050000     -33.54950000     -69.64010000
H      -47.06250000     -32.81880000     -70.66710000
C      -42.54350000     -32.93260000     -71.80200000
H      -41.75940000     -33.67200000     -71.66500000
H      -42.82180000     -32.73810000     -72.89480000
C      -43.80120000     -33.58190000     -71.13430000
H      -43.58380000     -33.88980000     -70.11510000
H      -44.61490000     -32.83550000     -71.06510000
C      -46.36440000     -34.42460000     -69.32880000
H      -46.83770000     -34.94680000     -68.47340000
H      -45.30770000     -34.08750000     -69.08180000
C      -46.45340000     -35.44980000     -70.51210000
C      -47.36400000     -36.45230000     -70.50900000
C      -45.50550000     -35.51580000     -71.59300000
H      -48.17240000     -36.62510000     -69.81280000
C      -45.62410000     -36.67140000     -72.40630000
C      -44.32430000     -34.78970000     -71.89710000
C      -43.66530000     -35.32140000     -72.95130000
S      -47.09390000     -37.55820000     -71.86810000
S      -44.44090000     -36.76840000     -73.67010000
H      -42.85770000     -34.85400000     -73.54430000
