40
Properties=species:S:1:pos:R:3 #=T CELL(abcABC):=T 1.889726e+02=T 90.00000=T Traj:=T positionsangstrom=T Step:=T 0=T Bead:=T pbc="F F F"
C      -45.08620000     -30.30490000     -73.93310000
C      -44.41460000     -30.31970000     -72.73510000
C      -45.09930000     -30.18990000     -71.54740000
C      -46.51400000     -30.06350000     -71.50890000
C      -47.14520000     -30.05280000     -72.77570000
C      -46.42440000     -30.08530000     -73.98200000
H      -44.40340000     -30.33160000     -74.80300000
H      -44.57910000     -30.32400000     -70.59770000
H      -48.23390000     -29.84260000     -72.77000000
H      -47.00030000     -29.97600000     -74.85340000
C      -47.38060000     -29.85920000     -70.21940000
H      -48.47590000     -29.84060000     -70.51900000
H      -47.11590000     -28.91010000     -69.71170000
C      -42.88540000     -30.59480000     -72.78690000
H      -42.58860000     -31.01660000     -73.72120000
H      -42.38180000     -29.59910000     -72.76690000
S      -47.15530000     -31.29210000     -69.09890000
S      -42.01620000     -31.48060000     -71.42950000
C      -47.07950000     -32.72940000     -70.22300000
H      -48.15380000     -32.89610000     -70.55020000
H      -46.41830000     -32.61900000     -71.10550000
C      -42.32340000     -33.31270000     -71.82110000
H      -41.65020000     -33.92910000     -71.21980000
H      -42.23530000     -33.60710000     -72.86230000
C      -43.76970000     -33.69620000     -71.37600000
H      -44.07510000     -33.26340000     -70.40860000
H      -44.45650000     -33.16060000     -72.06590000
C      -46.60430000     -33.85850000     -69.35990000
H      -47.24040000     -34.09550000     -68.46670000
H      -45.72570000     -33.50780000     -68.86670000
C      -46.44440000     -35.16150000     -69.98530000
C      -47.42260000     -36.18640000     -69.88910000
C      -45.36090000     -35.72580000     -70.85370000
H      -48.27550000     -36.04760000     -69.30730000
C      -45.58130000     -37.02240000     -71.23860000
C      -44.20900000     -35.16050000     -71.50760000
C      -43.49510000     -36.08680000     -72.18670000
S      -47.10350000     -37.69620000     -70.68600000
S      -44.31150000     -37.66610000     -72.15260000
H      -42.55630000     -35.93800000     -72.77060000
