40
Properties=species:S:1:pos:R:3 #=T CELL(abcABC):=T 1.889726e+02=T 90.00000=T Traj:=T positionsangstrom=T Step:=T 0=T Bead:=T pbc="F F F"
C      -48.00090000     -35.42390000     -70.98880000
C      -47.36600000     -35.24510000     -69.72210000
C      -47.56140000     -34.04430000     -69.01140000
C      -48.19790000     -32.98510000     -69.73230000
C      -48.84080000     -33.19720000     -70.91790000
C      -48.85000000     -34.48770000     -71.43140000
H      -47.83540000     -36.41120000     -71.52240000
H      -47.07950000     -33.98030000     -67.99460000
H      -49.36870000     -32.45810000     -71.55030000
H      -49.30310000     -34.61540000     -72.45870000
C      -48.11790000     -31.55590000     -69.15180000
H      -48.15130000     -31.66720000     -68.08800000
H      -48.78040000     -30.83060000     -69.55200000
C      -46.41870000     -36.37730000     -69.23860000
H      -47.01520000     -36.99400000     -68.55960000
H      -46.08020000     -36.94270000     -70.18850000
S      -46.37040000     -30.85140000     -69.41050000
S      -45.00010000     -35.78170000     -68.21440000
C      -45.98350000     -31.10700000     -71.17760000
H      -46.03680000     -32.10930000     -71.55720000
H      -46.79230000     -30.62590000     -71.84650000
C      -43.68800000     -35.08100000     -69.39450000
H      -43.32760000     -36.00000000     -69.92670000
H      -42.84560000     -34.85470000     -68.73340000
C      -44.18500000     -33.95570000     -70.29920000
H      -45.22400000     -33.99700000     -70.13990000
H      -43.87820000     -32.92420000     -69.91960000
C      -44.58060000     -30.59720000     -71.41230000
H      -43.91900000     -30.74680000     -70.57480000
H      -44.43930000     -29.54720000     -71.67380000
C      -43.99540000     -31.37410000     -72.62680000
C      -43.86390000     -30.71370000     -73.81770000
C      -43.83850000     -32.85570000     -72.73470000
H      -43.77990000     -29.65170000     -74.04370000
C      -43.30850000     -33.18900000     -73.96540000
C      -43.83670000     -33.96950000     -71.81560000
C      -43.40410000     -35.17000000     -72.44400000
S      -43.28670000     -31.81440000     -75.12900000
S      -43.01470000     -34.91900000     -74.16280000
H      -43.42840000     -36.13640000     -72.00530000
