40
Properties=species:S:1:pos:R:3 #=T CELL(abcABC):=T 1.889726e+02=T 90.00000=T Traj:=T positionsangstrom=T Step:=T 0=T Bead:=T pbc="F F F"
C      -47.24920000     -29.92750000     -72.66600000
C      -46.22240000     -30.65020000     -73.19780000
C      -46.50240000     -31.95930000     -73.81610000
C      -47.70420000     -32.57440000     -73.65700000
C      -48.77270000     -31.72250000     -73.16480000
C      -48.52740000     -30.49550000     -72.60570000
H      -47.19420000     -28.89800000     -72.40330000
H      -45.66260000     -32.38890000     -74.29440000
H      -49.81310000     -32.08320000     -73.06390000
H      -49.38690000     -29.89570000     -72.24830000
C      -48.03980000     -33.92370000     -74.28260000
H      -47.29370000     -34.27600000     -74.98890000
H      -49.07700000     -34.00700000     -74.67720000
C      -44.84720000     -29.99930000     -73.36380000
H      -44.22110000     -30.73100000     -73.87810000
H      -44.99070000     -29.03930000     -73.85820000
S      -48.24670000     -35.32030000     -73.06530000
S      -44.02360000     -29.76380000     -71.72700000
C      -46.54450000     -35.29340000     -72.15800000
H      -46.15760000     -36.33750000     -72.12530000
H      -45.92810000     -34.69520000     -72.88250000
C      -44.52320000     -31.37650000     -70.89490000
H      -45.55330000     -31.46190000     -70.81570000
H      -44.07130000     -31.19370000     -69.87190000
C      -43.83660000     -32.64000000     -71.54620000
H      -44.53250000     -33.09530000     -72.27550000
H      -42.90530000     -32.29750000     -72.12030000
C      -46.50220000     -34.62570000     -70.79160000
H      -47.53840000     -34.82780000     -70.35180000
H      -46.46380000     -33.53370000     -70.96260000
C      -45.45280000     -35.21500000     -69.93830000
C      -45.60690000     -36.21200000     -69.03860000
C      -44.01560000     -34.77330000     -69.93700000
H      -46.53690000     -36.78510000     -68.71650000
C      -43.24420000     -35.42820000     -69.00840000
C      -43.33540000     -33.68750000     -70.57830000
C      -42.15030000     -33.48210000     -70.09040000
S      -44.12700000     -36.65120000     -68.13870000
S      -41.58850000     -34.76520000     -68.99010000
H      -41.41920000     -32.74610000     -70.39850000
