40
Properties=species:S:1:pos:R:3 #=T CELL(abcABC):=T 1.889726e+02=T 90.00000=T Traj:=T positionsangstrom=T Step:=T 0=T Bead:=T pbc="F F F"
C      -44.61840000     -31.22730000     -73.70140000
C      -44.27800000     -30.60510000     -72.51260000
C      -45.20290000     -30.38450000     -71.53930000
C      -46.56560000     -30.83820000     -71.71020000
C      -46.92910000     -31.40520000     -72.92000000
C      -45.95090000     -31.72140000     -73.90950000
H      -43.82510000     -31.48620000     -74.44570000
H      -45.02560000     -29.88270000     -70.57330000
H      -47.96450000     -31.59380000     -73.19760000
H      -46.23970000     -32.39210000     -74.73950000
C      -47.63070000     -30.40110000     -70.79720000
H      -48.64950000     -30.51420000     -71.32840000
H      -47.59470000     -29.35930000     -70.63420000
C      -42.89200000     -30.06880000     -72.34250000
H      -42.38500000     -29.80930000     -73.26480000
H      -42.79760000     -29.18740000     -71.74390000
S      -47.65090000     -31.18350000     -69.17070000
S      -41.75020000     -31.32220000     -71.50340000
C      -47.66380000     -33.04490000     -69.62280000
H      -48.62970000     -33.45140000     -69.39420000
H      -47.64930000     -33.14520000     -70.71320000
C      -42.45350000     -32.97910000     -71.99220000
H      -41.58820000     -33.58790000     -72.02670000
H      -42.81830000     -32.97150000     -72.97950000
C      -43.54030000     -33.44260000     -71.01620000
H      -43.15540000     -33.39220000     -69.98550000
H      -44.35200000     -32.70520000     -71.09080000
C      -46.49590000     -33.82600000     -68.92670000
H      -46.67030000     -34.09420000     -67.84670000
H      -45.52170000     -33.28430000     -68.88690000
C      -46.29670000     -35.12510000     -69.71140000
C      -47.20850000     -36.08530000     -69.56370000
C      -45.31270000     -35.32870000     -70.80270000
H      -47.98670000     -36.00430000     -68.82380000
C      -45.59360000     -36.58390000     -71.40200000
C      -44.18140000     -34.73540000     -71.42480000
C      -43.72290000     -35.51320000     -72.43020000
S      -46.89080000     -37.44330000     -70.68900000
S      -44.55550000     -36.99350000     -72.68760000
H      -42.79140000     -35.36100000     -73.05700000
