40
Properties=species:S:1:pos:R:3 #=T CELL(abcABC):=T 1.889726e+02=T 90.00000=T Traj:=T positionsangstrom=T Step:=T 0=T Bead:=T pbc="F F F"
C      -47.36390000     -30.01710000     -72.62400000
C      -46.27910000     -30.61690000     -73.30130000
C      -46.49180000     -31.89360000     -73.81560000
C      -47.71820000     -32.48990000     -73.82330000
C      -48.75530000     -31.94820000     -73.05370000
C      -48.58620000     -30.62460000     -72.47190000
H      -47.30680000     -29.13180000     -71.99810000
H      -45.67250000     -32.45690000     -74.31730000
H      -49.71800000     -32.39870000     -72.94120000
H      -49.40840000     -30.18420000     -72.01720000
C      -47.88170000     -33.92740000     -74.38150000
H      -46.99520000     -34.03030000     -74.98700000
H      -48.66440000     -33.93110000     -75.15120000
C      -45.02660000     -29.91730000     -73.42820000
H      -44.36200000     -30.24540000     -74.25380000
H      -45.17080000     -28.85640000     -73.62700000
S      -48.06690000     -35.19180000     -73.05020000
S      -44.07250000     -29.83430000     -71.83620000
C      -46.46210000     -35.26490000     -72.24160000
H      -46.18200000     -36.28950000     -72.19660000
H      -45.70850000     -34.74540000     -72.80030000
C      -44.37820000     -31.40740000     -70.85160000
H      -45.47020000     -31.65540000     -70.64130000
H      -43.95420000     -31.25580000     -69.83360000
C      -43.78380000     -32.72010000     -71.61280000
H      -44.64080000     -33.18060000     -72.15960000
H      -43.02000000     -32.37840000     -72.26330000
C      -46.58310000     -34.74080000     -70.81460000
H      -47.54750000     -35.18720000     -70.35880000
H      -46.85780000     -33.68410000     -70.78550000
C      -45.48580000     -35.15060000     -69.89190000
C      -45.68850000     -36.13780000     -68.92560000
C      -44.07960000     -34.63290000     -69.87490000
H      -46.59740000     -36.72730000     -68.72600000
C      -43.33370000     -35.26640000     -68.87530000
C      -43.25710000     -33.81770000     -70.71360000
C      -42.00080000     -33.74880000     -70.26050000
S      -44.15210000     -36.50660000     -68.05850000
S      -41.67460000     -34.80400000     -68.90120000
H      -41.16350000     -33.15570000     -70.56330000
