40
Properties=species:S:1:pos:R:3 #=T CELL(abcABC):=T 1.889726e+02=T 90.00000=T Traj:=T positionsangstrom=T Step:=T 0=T Bead:=T pbc="F F F"
C      -44.67840000     -31.32400000     -73.69750000
C      -44.43810000     -30.58070000     -72.55970000
C      -45.48850000     -30.33430000     -71.62840000
C      -46.75750000     -30.78070000     -71.87220000
C      -47.01990000     -31.51070000     -73.05020000
C      -45.99040000     -31.84120000     -73.92410000
H      -43.89610000     -31.56330000     -74.43390000
H      -45.31800000     -29.75100000     -70.72610000
H      -48.01400000     -31.87970000     -73.22040000
H      -46.22920000     -32.25760000     -74.90090000
C      -47.78670000     -30.47390000     -70.89910000
H      -48.80730000     -30.75320000     -71.27090000
H      -47.75900000     -29.39700000     -70.67680000
C      -42.95220000     -30.11590000     -72.24410000
H      -42.49910000     -29.82640000     -73.22620000
H      -43.04280000     -29.18950000     -71.59330000
S      -47.43900000     -31.19370000     -69.11850000
S      -41.74520000     -31.30030000     -71.51930000
C      -47.43490000     -32.95560000     -69.60090000
H      -48.40410000     -33.38110000     -69.27530000
H      -47.22850000     -33.11910000     -70.67790000
C      -42.48250000     -32.95080000     -71.81160000
H      -41.60290000     -33.64350000     -71.83270000
H      -42.93820000     -33.01860000     -72.83660000
C      -43.55870000     -33.41660000     -70.89620000
H      -43.20760000     -33.51300000     -69.83310000
H      -44.37740000     -32.64700000     -70.95990000
C      -46.29000000     -33.76790000     -69.00780000
H      -46.34740000     -33.78830000     -67.91840000
H      -45.38570000     -33.12390000     -69.11200000
C      -46.21390000     -35.09950000     -69.70500000
C      -47.18270000     -36.03550000     -69.62190000
C      -45.22450000     -35.39480000     -70.76150000
H      -48.11200000     -36.05240000     -69.05800000
C      -45.54540000     -36.64800000     -71.33640000
C      -44.12670000     -34.75460000     -71.37990000
C      -43.67980000     -35.44510000     -72.45420000
S      -46.99600000     -37.34180000     -70.68300000
S      -44.54260000     -37.06220000     -72.68890000
H      -42.69590000     -35.36780000     -72.99100000
