40
Properties=species:S:1:pos:R:3 #=T CELL(abcABC):=T 1.889726e+02=T 90.00000=T Traj:=T positionsangstrom=T Step:=T 0=T Bead:=T pbc="F F F"
C      -44.85680000     -30.76670000     -73.97230000
C      -44.32740000     -30.44610000     -72.72920000
C      -45.18750000     -30.10200000     -71.66360000
C      -46.54040000     -30.22100000     -71.83040000
C      -47.12770000     -30.62170000     -73.05720000
C      -46.20240000     -30.81000000     -74.12990000
H      -44.22930000     -30.94480000     -74.86630000
H      -44.66680000     -29.85120000     -70.69360000
H      -48.16050000     -30.81210000     -73.18610000
H      -46.72690000     -30.97120000     -75.07970000
C      -47.34510000     -30.02210000     -70.62240000
H      -48.46670000     -30.03600000     -70.93990000
H      -47.15430000     -29.02540000     -70.10190000
C      -42.85880000     -30.24600000     -72.51960000
H      -42.32430000     -30.55630000     -73.35740000
H      -42.75100000     -29.18340000     -72.30220000
S      -47.01550000     -31.27980000     -69.26430000
S      -42.26490000     -31.19060000     -71.05690000
C      -47.38470000     -32.90250000     -69.96760000
H      -48.47170000     -33.03440000     -70.10920000
H      -46.99020000     -32.99930000     -70.96940000
C      -42.68980000     -32.93390000     -71.56450000
H      -41.77540000     -33.52440000     -71.58120000
H      -42.93600000     -32.72350000     -72.62490000
C      -43.85850000     -33.60370000     -70.77970000
H      -43.72020000     -33.63510000     -69.71690000
H      -44.74650000     -32.95660000     -70.93090000
C      -46.86140000     -34.09820000     -69.16170000
H      -47.49250000     -34.34290000     -68.28460000
H      -45.91270000     -33.77910000     -68.64530000
C      -46.61680000     -35.31000000     -70.01330000
C      -47.50750000     -36.32850000     -69.99630000
C      -45.42640000     -35.66850000     -70.81010000
H      -48.48440000     -36.37870000     -69.46520000
C      -45.48970000     -36.97440000     -71.35230000
C      -44.24490000     -34.95240000     -71.27500000
C      -43.51680000     -35.69610000     -72.19060000
S      -46.93340000     -37.79820000     -70.86750000
S      -44.00900000     -37.34300000     -72.34660000
H      -42.56700000     -35.38550000     -72.66400000
