40
Properties=species:S:1:pos:R:3 #=T CELL(abcABC):=T 1.889726e+02=T 90.00000=T Traj:=T positionsangstrom=T Step:=T 0=T Bead:=T pbc="F F F"
C      -49.07720000     -32.57910000     -73.03580000
C      -48.57550000     -31.86890000     -71.92710000
C      -48.17220000     -32.48470000     -70.70230000
C      -48.37400000     -33.82400000     -70.56140000
C      -48.87650000     -34.62640000     -71.65330000
C      -49.23580000     -33.99950000     -72.84900000
H      -49.25910000     -32.14470000     -73.97740000
H      -47.69500000     -31.79830000     -69.98870000
H      -48.88990000     -35.71930000     -71.51220000
H      -49.52780000     -34.58230000     -73.78700000
C      -48.06870000     -34.45590000     -69.20200000
H      -48.98650000     -34.62320000     -68.57880000
H      -47.42490000     -33.73330000     -68.71120000
C      -48.34620000     -30.33180000     -71.92650000
H      -48.98530000     -29.75260000     -72.64350000
H      -48.53850000     -30.01190000     -70.92090000
S      -47.26180000     -36.08460000     -69.26610000
S      -46.62490000     -29.78040000     -72.41690000
C      -45.54400000     -35.83560000     -69.78590000
H      -45.22450000     -35.01750000     -69.15110000
H      -44.97360000     -36.70530000     -69.50940000
C      -45.66100000     -31.30930000     -72.52790000
H      -44.95410000     -31.11840000     -73.33650000
H      -46.23030000     -32.06720000     -72.92030000
C      -44.95930000     -31.85610000     -71.19300000
H      -44.93370000     -31.15260000     -70.44990000
H      -45.63720000     -32.61370000     -70.84240000
C      -45.24330000     -35.45460000     -71.27380000
H      -45.94600000     -34.59860000     -71.65110000
H      -45.44830000     -36.32350000     -71.96170000
C      -43.79640000     -35.00600000     -71.37410000
C      -42.83940000     -36.04550000     -71.41290000
C      -43.13720000     -33.69490000     -71.43800000
H      -43.09940000     -37.07250000     -71.18070000
C      -41.76160000     -33.80620000     -71.54000000
C      -43.55740000     -32.27790000     -71.34210000
C      -42.45370000     -31.42780000     -71.38270000
S      -41.13080000     -35.43660000     -71.34360000
S      -40.94390000     -32.26320000     -71.53550000
H      -42.54980000     -30.45440000     -71.61170000
