40
Properties=species:S:1:pos:R:3 #=T CELL(abcABC):=T 1.889726e+02=T 90.00000=T Traj:=T positionsangstrom=T Step:=T 0=T Bead:=T pbc="F F F"
C      -48.33290000     -32.05720000     -72.91360000
C      -48.17200000     -31.63780000     -71.60390000
C      -48.24640000     -32.62430000     -70.63540000
C      -48.56830000     -33.93150000     -70.90050000
C      -48.60120000     -34.35600000     -72.22720000
C      -48.59890000     -33.42950000     -73.22170000
H      -48.25230000     -31.31500000     -73.66380000
H      -48.25970000     -32.29160000     -69.60530000
H      -48.79750000     -35.46020000     -72.51940000
H      -48.70000000     -33.76150000     -74.28380000
C      -48.79330000     -34.93310000     -69.70690000
H      -49.61360000     -35.59020000     -70.12010000
H      -49.19410000     -34.36610000     -68.84560000
C      -47.82590000     -30.25450000     -71.30770000
H      -48.58680000     -29.51710000     -71.61200000
H      -47.74370000     -30.22880000     -70.18960000
S      -47.46350000     -35.98440000     -69.15720000
S      -46.26280000     -29.64490000     -72.21710000
C      -45.93710000     -34.99160000     -69.58860000
H      -46.08530000     -33.88640000     -69.40640000
H      -45.17040000     -35.24660000     -68.85850000
C      -45.20790000     -31.15320000     -72.33920000
H      -44.37060000     -30.93720000     -72.93680000
H      -45.84100000     -31.89670000     -72.86340000
C      -44.86810000     -31.66580000     -70.98500000
H      -44.64180000     -30.88280000     -70.23710000
H      -45.64960000     -32.35860000     -70.60650000
C      -45.47370000     -35.34760000     -71.05210000
H      -46.09190000     -34.87980000     -71.80970000
H      -45.55030000     -36.36930000     -71.20410000
C      -44.00180000     -35.10800000     -71.28170000
C      -43.19930000     -36.16970000     -71.47300000
C      -43.25130000     -33.89860000     -71.28510000
H      -43.47550000     -37.20530000     -71.31980000
C      -41.90090000     -34.09010000     -71.55450000
C      -43.55950000     -32.50200000     -71.09000000
C      -42.37820000     -31.74590000     -71.29720000
S      -41.48690000     -35.74730000     -71.63270000
S      -41.03280000     -32.64240000     -71.84230000
H      -42.32000000     -30.61720000     -71.43080000
