40
Properties=species:S:1:pos:R:3 #=T CELL(abcABC):=T 1.889726e+02=T 90.00000=T Traj:=T positionsangstrom=T Step:=T 0=T Bead:=T pbc="F F F"
C      -47.74070000     -36.31290000     -72.07370000
C      -46.53650000     -35.81090000     -71.56280000
C      -46.52570000     -34.53670000     -70.89410000
C      -47.68440000     -33.78520000     -70.80430000
C      -48.92470000     -34.31200000     -71.37090000
C      -48.95760000     -35.55460000     -71.98640000
H      -47.69030000     -37.30230000     -72.48950000
H      -45.64460000     -34.13380000     -70.45100000
H      -49.75320000     -33.63930000     -71.27980000
H      -49.96250000     -35.90740000     -72.35400000
C      -47.71090000     -32.40760000     -70.25680000
H      -46.84430000     -32.13820000     -69.80690000
H      -48.47870000     -32.37520000     -69.49640000
C      -45.33630000     -36.56050000     -71.77600000
H      -44.60020000     -36.64370000     -70.97840000
H      -45.65570000     -37.68310000     -71.83340000
S      -48.03790000     -31.10040000     -71.60330000
S      -44.42710000     -36.18000000     -73.40030000
C      -46.55560000     -31.29800000     -72.80500000
H      -46.33170000     -32.41690000     -72.85610000
H      -46.92320000     -31.02110000     -73.80140000
C      -44.83280000     -34.41090000     -73.73720000
H      -45.73610000     -33.98740000     -73.25700000
H      -44.93470000     -34.38340000     -74.82460000
C      -43.62620000     -33.57740000     -73.36570000
H      -42.73640000     -33.98280000     -73.91570000
H      -43.70540000     -32.51850000     -73.78630000
C      -45.37150000     -30.54670000     -72.39420000
H      -45.52550000     -29.53310000     -72.14940000
H      -44.75210000     -30.65540000     -73.28400000
C      -44.57890000     -31.12410000     -71.07820000
C      -44.60170000     -30.48170000     -69.87150000
C      -43.74330000     -32.33840000     -70.97890000
H      -45.22350000     -29.63590000     -69.72550000
C      -43.19910000     -32.45310000     -69.68990000
C      -43.35830000     -33.47170000     -71.86170000
C      -42.65160000     -34.41370000     -71.18910000
S      -43.66580000     -31.25660000     -68.58250000
S      -42.34620000     -33.97020000     -69.53540000
H      -42.22360000     -35.24460000     -71.66820000
