40
Properties=species:S:1:pos:R:3 #=T CELL(abcABC):=T 1.889726e+02=T 90.00000=T Traj:=T positionsangstrom=T Step:=T 0=T Bead:=T pbc="F F F"
C      -47.90620000     -36.04600000     -72.33220000
C      -46.71580000     -35.67500000     -71.65820000
C      -46.63460000     -34.42190000     -71.02120000
C      -47.76480000     -33.58390000     -71.08110000
C      -48.86890000     -33.85410000     -71.94740000
C      -49.05900000     -35.21610000     -72.43140000
H      -47.97210000     -37.12960000     -72.78950000
H      -45.78110000     -34.12350000     -70.44020000
H      -49.73150000     -33.16500000     -72.06050000
H      -49.93060000     -35.64900000     -72.88810000
C      -47.73270000     -32.24980000     -70.41470000
H      -46.75800000     -32.31320000     -69.85810000
H      -48.57640000     -32.14310000     -69.73350000
C      -45.49050000     -36.56120000     -71.55360000
H      -44.88530000     -36.43070000     -70.66990000
H      -45.66250000     -37.61020000     -71.49270000
S      -47.70880000     -30.75890000     -71.63070000
S      -44.44210000     -36.42650000     -73.11590000
C      -46.45390000     -31.34460000     -72.86080000
H      -46.49220000     -32.42990000     -73.09970000
H      -46.76610000     -30.85130000     -73.77810000
C      -44.44700000     -34.68310000     -73.59890000
H      -45.31540000     -34.26860000     -73.15270000
H      -44.48550000     -34.67980000     -74.73010000
C      -43.21980000     -33.83010000     -73.17770000
H      -42.30810000     -34.26490000     -73.51500000
H      -43.16040000     -32.87480000     -73.72850000
C      -44.96550000     -30.90900000     -72.64150000
H      -44.88670000     -29.82360000     -72.87920000
H      -44.35120000     -31.50270000     -73.36230000
C      -44.41670000     -31.24490000     -71.27420000
C      -44.59940000     -30.46960000     -70.17220000
C      -43.68540000     -32.47050000     -70.97610000
H      -45.24970000     -29.60110000     -70.01640000
C      -43.44700000     -32.58520000     -69.59050000
C      -43.15130000     -33.62890000     -71.69730000
C      -42.58840000     -34.57860000     -70.86180000
S      -44.02660000     -31.21250000     -68.59540000
S      -42.67420000     -34.09100000     -69.14060000
H      -41.88690000     -35.44200000     -71.09400000
