40
Properties=species:S:1:pos:R:3 #=T CELL(abcABC):=T 1.889726e+02=T 90.00000=T Traj:=T positionsangstrom=T Step:=T 0=T Bead:=T pbc="F F F"
C      -47.91390000     -36.16680000     -72.34040000
C      -46.75100000     -35.72770000     -71.66140000
C      -46.77230000     -34.45850000     -71.06010000
C      -47.90640000     -33.57700000     -71.21240000
C      -48.89400000     -33.92800000     -72.12240000
C      -48.94850000     -35.23240000     -72.61560000
H      -48.11830000     -37.19750000     -72.70670000
H      -45.93690000     -34.10490000     -70.51000000
H      -49.78810000     -33.27280000     -72.23660000
H      -49.84230000     -35.38720000     -73.21250000
C      -47.99990000     -32.18030000     -70.49880000
H      -47.16700000     -32.17820000     -69.77140000
H      -48.95880000     -32.06810000     -70.07910000
C      -45.42740000     -36.47190000     -71.64970000
H      -44.71770000     -36.19190000     -70.75370000
H      -45.53610000     -37.51790000     -71.40840000
S      -47.69590000     -30.81430000     -71.75300000
S      -44.43670000     -36.37580000     -73.21350000
C      -46.49580000     -31.47630000     -72.94510000
H      -46.55250000     -32.58130000     -73.03810000
H      -46.93530000     -31.09780000     -73.83460000
C      -44.09650000     -34.65500000     -73.67630000
H      -44.99010000     -34.11840000     -73.34880000
H      -43.92050000     -34.59940000     -74.75190000
C      -42.79000000     -33.87680000     -72.93090000
H      -41.93500000     -34.42910000     -73.10810000
H      -42.69790000     -33.00970000     -73.58160000
C      -44.96320000     -31.12090000     -72.70550000
H      -44.88160000     -30.02430000     -72.85800000
H      -44.29150000     -31.56230000     -73.45230000
C      -44.48250000     -31.39960000     -71.30400000
C      -44.87340000     -30.61560000     -70.25410000
C      -43.75790000     -32.54110000     -70.85360000
H      -45.50170000     -29.79900000     -70.49090000
C      -43.51890000     -32.54590000     -69.42500000
C      -42.98700000     -33.61740000     -71.43490000
C      -42.43470000     -34.48030000     -70.43890000
S      -44.16400000     -31.12960000     -68.74040000
S      -42.62500000     -33.89690000     -68.81610000
H      -41.79790000     -35.26140000     -70.77850000
