40
Properties=species:S:1:pos:R:3 #=T CELL(abcABC):=T 1.889726e+02=T 90.00000=T Traj:=T positionsangstrom=T Step:=T 0=T Bead:=T pbc="F F F"
C      -47.69360000     -36.22360000     -72.18160000
C      -46.48540000     -35.63470000     -71.60020000
C      -46.60690000     -34.43360000     -70.91120000
C      -47.82240000     -33.68330000     -70.97110000
C      -48.95100000     -34.22490000     -71.59920000
C      -48.83180000     -35.49780000     -72.27380000
H      -47.45440000     -37.15610000     -72.59340000
H      -45.84180000     -33.91520000     -70.34690000
H      -49.81560000     -33.60470000     -71.64410000
H      -49.81160000     -35.86390000     -72.58220000
C      -47.86580000     -32.24720000     -70.31520000
H      -47.07290000     -32.00920000     -69.58040000
H      -48.91390000     -32.07030000     -69.83090000
C      -45.18580000     -36.38790000     -71.63230000
H      -44.43840000     -35.86130000     -71.06940000
H      -45.30740000     -37.42680000     -71.35330000
S      -47.91570000     -31.00270000     -71.63130000
S      -44.48600000     -36.43590000     -73.33210000
C      -46.42760000     -31.38980000     -72.67200000
H      -46.04680000     -32.36750000     -72.56420000
H      -46.65250000     -31.32240000     -73.72020000
C      -44.54820000     -34.57270000     -73.84280000
H      -45.57680000     -34.16510000     -73.59020000
H      -44.46570000     -34.66830000     -74.91130000
C      -43.53320000     -33.55530000     -73.32340000
H      -42.60000000     -33.67530000     -73.88480000
H      -43.85790000     -32.61020000     -73.67310000
C      -45.14650000     -30.53120000     -72.33740000
H      -45.48670000     -29.45810000     -72.11230000
H      -44.49510000     -30.54840000     -73.24230000
C      -44.50050000     -31.08990000     -71.05360000
C      -44.60740000     -30.39980000     -69.88510000
C      -43.74820000     -32.34950000     -70.96890000
H      -44.81150000     -29.38400000     -69.92740000
C      -43.39640000     -32.55990000     -69.61880000
C      -43.31200000     -33.39060000     -71.83940000
C      -42.59710000     -34.40530000     -71.23200000
S      -43.79660000     -31.24340000     -68.47650000
S      -42.59060000     -34.19020000     -69.46030000
H      -42.20310000     -35.24570000     -71.68030000
