40
Properties=species:S:1:pos:R:3 #=T CELL(abcABC):=T 1.889726e+02=T 90.00000=T Traj:=T positionsangstrom=T Step:=T 0=T Bead:=T pbc="F F F"
C      -47.40710000     -36.09360000     -71.94700000
C      -46.28250000     -35.69860000     -71.25820000
C      -46.39020000     -34.60580000     -70.33840000
C      -47.58420000     -33.97690000     -70.12270000
C      -48.72700000     -34.55270000     -70.77980000
C      -48.63560000     -35.62510000     -71.64170000
H      -47.35570000     -36.89980000     -72.64720000
H      -45.45660000     -34.26890000     -69.98110000
H      -49.63570000     -34.26430000     -70.43980000
H      -49.51030000     -36.05330000     -72.10810000
C      -47.68830000     -32.63660000     -69.33970000
H      -46.73750000     -32.35080000     -68.81580000
H      -48.41390000     -32.75420000     -68.43590000
C      -44.86440000     -36.31730000     -71.59090000
H      -44.06660000     -35.82030000     -71.09520000
H      -44.81640000     -37.24890000     -71.05750000
S      -48.12770000     -31.16460000     -70.40650000
S      -44.51220000     -36.40080000     -73.37950000
C      -47.39510000     -31.63430000     -72.06210000
H      -47.21180000     -32.72430000     -72.08710000
H      -48.08280000     -31.36230000     -72.84640000
C      -45.09120000     -34.74240000     -74.02670000
H      -46.05990000     -34.45990000     -73.63270000
H      -45.33130000     -34.89110000     -75.06210000
C      -44.09450000     -33.54270000     -73.87380000
H      -43.21890000     -33.51200000     -74.48870000
H      -44.63560000     -32.68950000     -74.13380000
C      -46.05020000     -30.91300000     -72.41900000
H      -46.18950000     -29.86440000     -72.34480000
H      -45.64940000     -31.16450000     -73.43040000
C      -44.91100000     -31.25760000     -71.41140000
C      -44.79090000     -30.53750000     -70.28290000
C      -43.95670000     -32.39750000     -71.47190000
H      -45.46790000     -29.69050000     -70.17150000
C      -43.16940000     -32.37230000     -70.30050000
C      -43.45450000     -33.28070000     -72.50020000
C      -42.30260000     -33.93080000     -72.00120000
S      -43.63010000     -31.14800000     -69.12750000
S      -41.79500000     -33.47590000     -70.41570000
H      -41.74940000     -34.72440000     -72.47650000
