40
Properties=species:S:1:pos:R:3 #=T CELL(abcABC):=T 1.889726e+02=T 90.00000=T Traj:=T positionsangstrom=T Step:=T 0=T Bead:=T pbc="F F F"
C      -47.57980000     -36.31850000     -71.95100000
C      -46.39120000     -35.83590000     -71.32890000
C      -46.46370000     -34.65280000     -70.60320000
C      -47.68680000     -33.97750000     -70.32660000
C      -48.80500000     -34.48190000     -70.93080000
C      -48.75370000     -35.62930000     -71.76680000
H      -47.62580000     -37.16220000     -72.60460000
H      -45.60970000     -34.25500000     -70.04870000
H      -49.65570000     -33.93250000     -70.92200000
H      -49.65100000     -35.85810000     -72.31710000
C      -47.66230000     -32.79570000     -69.45250000
H      -46.82350000     -32.75030000     -68.88150000
H      -48.52990000     -33.00620000     -68.81920000
C      -45.08910000     -36.44960000     -71.51390000
H      -44.36270000     -35.79200000     -71.03350000
H      -45.14160000     -37.55830000     -71.40490000
S      -47.99060000     -31.28740000     -70.51590000
S      -44.46870000     -36.34660000     -73.36530000
C      -47.28840000     -31.58700000     -72.18330000
H      -47.33050000     -32.70230000     -72.27150000
H      -48.12180000     -31.21670000     -72.81020000
C      -45.05210000     -34.64170000     -73.84490000
H      -45.73590000     -34.29920000     -73.04370000
H      -45.45470000     -34.68550000     -74.87440000
C      -43.89450000     -33.55080000     -73.80710000
H      -43.13520000     -34.01090000     -74.43080000
H      -44.29330000     -32.65260000     -74.40610000
C      -45.91900000     -30.76540000     -72.38090000
H      -46.18470000     -29.74710000     -72.27270000
H      -45.60610000     -30.87570000     -73.43500000
C      -44.84680000     -31.17350000     -71.37290000
C      -44.84320000     -30.51350000     -70.21190000
C      -43.79460000     -32.18690000     -71.49790000
H      -45.42290000     -29.57860000     -70.02940000
C      -43.06600000     -32.21380000     -70.32600000
C      -43.38870000     -33.26740000     -72.42720000
C      -42.40140000     -34.05820000     -71.84230000
S      -43.59260000     -31.03220000     -69.06690000
S      -41.93230000     -33.52130000     -70.21160000
H      -41.91010000     -34.90650000     -72.28200000
