40
Properties=species:S:1:pos:R:3 #=T CELL(abcABC):=T 1.889726e+02=T 90.00000=T Traj:=T positionsangstrom=T Step:=T 0=T Bead:=T pbc="F F F"
C      -47.88740000     -36.58740000     -71.99100000
C      -46.66070000     -36.03750000     -71.62210000
C      -46.66920000     -34.86060000     -70.83620000
C      -47.79610000     -34.09320000     -70.62930000
C      -49.00010000     -34.62470000     -71.08860000
C      -49.05390000     -35.82820000     -71.77610000
H      -47.95930000     -37.55780000     -72.53370000
H      -45.69970000     -34.55910000     -70.37370000
H      -49.93900000     -33.98230000     -71.00000000
H      -50.03570000     -36.14530000     -72.13030000
C      -47.66780000     -32.83130000     -69.88340000
H      -46.71220000     -32.86240000     -69.38770000
H      -48.33870000     -32.74260000     -69.08990000
C      -45.32060000     -36.69190000     -71.82130000
H      -44.67580000     -36.48760000     -70.95300000
H      -45.38910000     -37.80020000     -71.86960000
S      -47.96400000     -31.33200000     -70.94070000
S      -44.48060000     -36.23080000     -73.40740000
C      -46.85790000     -31.53280000     -72.42530000
H      -46.47420000     -32.53750000     -72.44600000
H      -47.47470000     -31.19020000     -73.28340000
C      -44.93030000     -34.44480000     -73.70460000
H      -45.70150000     -34.20860000     -72.97310000
H      -45.31620000     -34.42230000     -74.67720000
C      -43.88710000     -33.33580000     -73.50980000
H      -43.07260000     -33.45680000     -74.33770000
H      -44.39050000     -32.41130000     -73.78200000
C      -45.56530000     -30.62150000     -72.33620000
H      -45.84740000     -29.56370000     -72.24610000
H      -45.09540000     -30.74570000     -73.22420000
C      -44.67370000     -30.98590000     -71.21880000
C      -44.57450000     -30.26800000     -70.07230000
C      -43.78850000     -32.12120000     -71.21740000
H      -45.17590000     -29.38340000     -69.75370000
C      -43.09890000     -32.26810000     -70.00730000
C      -43.37780000     -33.24270000     -72.10390000
C      -42.41280000     -34.06080000     -71.51340000
S      -43.44550000     -30.90210000     -68.91470000
S      -42.02590000     -33.59540000     -69.89710000
H      -41.93570000     -34.96450000     -71.94910000
