40
Properties=species:S:1:pos:R:3 #=T CELL(abcABC):=T 1.889726e+02=T 90.00000=T Traj:=T positionsangstrom=T Step:=T 0=T Bead:=T pbc="F F F"
C      -47.92240000     -36.50440000     -72.06390000
C      -46.68230000     -36.00790000     -71.69140000
C      -46.57360000     -34.80670000     -71.01610000
C      -47.75620000     -34.03960000     -70.76450000
C      -48.97490000     -34.55080000     -71.11260000
C      -49.09790000     -35.83800000     -71.78100000
H      -47.86700000     -37.50270000     -72.55510000
H      -45.54520000     -34.50560000     -70.76600000
H      -50.00420000     -34.03520000     -70.87620000
H      -50.06650000     -36.22010000     -72.07690000
C      -47.70370000     -32.69280000     -70.08140000
H      -46.66480000     -32.62790000     -69.60910000
H      -48.45940000     -32.71660000     -69.35020000
C      -45.42540000     -36.84430000     -71.93750000
H      -44.71210000     -36.70300000     -71.08830000
H      -45.66930000     -37.88430000     -72.19210000
S      -48.05410000     -31.20810000     -71.17860000
S      -44.49620000     -36.29540000     -73.44430000
C      -46.78300000     -31.40150000     -72.45210000
H      -46.58280000     -32.48200000     -72.45720000
H      -47.21540000     -31.21260000     -73.47610000
C      -44.85220000     -34.52560000     -73.77250000
H      -45.76790000     -34.35310000     -73.16310000
H      -45.04900000     -34.37660000     -74.89040000
C      -43.70000000     -33.50900000     -73.44140000
H      -42.74920000     -33.82310000     -73.90170000
H      -43.90010000     -32.54400000     -73.87740000
C      -45.43940000     -30.56700000     -72.27220000
H      -45.67430000     -29.55240000     -71.95280000
H      -44.76740000     -30.49210000     -73.13620000
C      -44.57050000     -30.97090000     -71.11810000
C      -44.65360000     -30.26780000     -69.93370000
C      -43.71010000     -32.11750000     -71.11470000
H      -45.13160000     -29.28540000     -69.77370000
C      -43.03430000     -32.19590000     -69.90770000
C      -43.40330000     -33.30440000     -71.97250000
C      -42.57430000     -34.20660000     -71.34800000
S      -43.50810000     -30.96360000     -68.71980000
S      -42.03510000     -33.61340000     -69.77650000
H      -42.11400000     -35.08550000     -71.87600000
