40
Properties=species:S:1:pos:R:3 #=T CELL(abcABC):=T 1.889726e+02=T 90.00000=T Traj:=T positionsangstrom=T Step:=T 0=T Bead:=T pbc="F F F"
C      -48.43960000     -31.06140000     -71.86510000
C      -47.94190000     -31.56900000     -70.62970000
C      -48.20930000     -32.90490000     -70.29630000
C      -48.89860000     -33.77670000     -71.13180000
C      -49.55120000     -33.18740000     -72.26700000
C      -49.35840000     -31.85810000     -72.59120000
H      -48.39620000     -30.01180000     -72.16340000
H      -47.83710000     -33.30530000     -69.40660000
H      -50.16040000     -33.74430000     -72.93240000
H      -49.88220000     -31.45370000     -73.48430000
C      -49.05110000     -35.22130000     -70.75510000
H      -50.01010000     -35.49920000     -71.14830000
H      -49.07060000     -35.33630000     -69.64910000
C      -47.12950000     -30.69890000     -69.69400000
H      -47.75680000     -30.03560000     -69.04440000
H      -46.60220000     -31.32730000     -68.98710000
S      -47.70040000     -36.34400000     -71.24700000
S      -45.89800000     -29.59200000     -70.60160000
C      -46.28880000     -35.25010000     -70.82160000
H      -46.68100000     -34.65810000     -70.00890000
H      -45.50950000     -35.89860000     -70.45530000
C      -44.67940000     -30.74610000     -71.34620000
H      -43.78050000     -30.22560000     -71.62310000
H      -45.08810000     -31.18450000     -72.29240000
C      -44.33210000     -31.80190000     -70.34920000
H      -44.30810000     -31.42090000     -69.24250000
H      -45.23100000     -32.41510000     -70.18160000
C      -45.72920000     -34.50470000     -72.03530000
H      -45.87120000     -33.46560000     -71.93660000
H      -46.25330000     -34.90170000     -72.92080000
C      -44.14140000     -34.73150000     -72.12800000
C      -43.61770000     -35.71560000     -72.85090000
C      -43.12830000     -33.98490000     -71.37880000
H      -44.34420000     -36.27520000     -73.48580000
C      -41.89590000     -34.52840000     -71.60350000
C      -43.14190000     -32.74080000     -70.65880000
C      -41.85480000     -32.46060000     -70.28570000
S      -41.86850000     -35.83650000     -72.84370000
S      -40.60040000     -33.55950000     -70.90390000
H      -41.62140000     -31.46640000     -69.94510000
