40
Properties=species:S:1:pos:R:3 #=T CELL(abcABC):=T 1.889726e+02=T 90.00000=T Traj:=T positionsangstrom=T Step:=T 0=T Bead:=T pbc="F F F"
C      -48.38090000     -31.39420000     -72.72380000
C      -48.09870000     -31.25900000     -71.34320000
C      -48.30160000     -32.30810000     -70.43930000
C      -48.52100000     -33.58810000     -70.94490000
C      -48.70300000     -33.74300000     -72.32340000
C      -48.54910000     -32.68870000     -73.22600000
H      -48.19270000     -30.63080000     -73.46270000
H      -48.11850000     -32.13180000     -69.37020000
H      -48.91340000     -34.80100000     -72.67290000
H      -48.67920000     -32.85440000     -74.31820000
C      -48.42790000     -34.83060000     -70.08250000
H      -49.48300000     -35.11970000     -69.80150000
H      -47.99400000     -34.60740000     -69.15570000
C      -47.69100000     -29.87930000     -70.86250000
H      -47.35180000     -29.23010000     -71.65620000
H      -48.53160000     -29.38200000     -70.30670000
S      -47.66390000     -36.34530000     -70.75980000
S      -46.22970000     -30.03180000     -69.66330000
C      -45.90410000     -35.83990000     -70.79070000
H      -45.60050000     -35.18170000     -69.98040000
H      -45.25700000     -36.68790000     -70.58680000
C      -45.07040000     -30.90280000     -70.77330000
H      -44.11440000     -30.43900000     -70.68520000
H      -45.55270000     -30.94930000     -71.80060000
C      -44.84630000     -32.33460000     -70.19690000
H      -44.85580000     -32.48470000     -69.08520000
H      -45.71990000     -33.03520000     -70.50110000
C      -45.62860000     -35.22330000     -72.13090000
H      -46.28220000     -34.31820000     -72.21920000
H      -45.85100000     -35.96180000     -72.86880000
C      -44.12820000     -34.86110000     -72.35570000
C      -43.33450000     -35.78110000     -73.02110000
C      -43.31140000     -33.96270000     -71.59830000
H      -43.71530000     -36.54270000     -73.72610000
C      -41.95540000     -34.09910000     -71.89510000
C      -43.52300000     -32.84800000     -70.72860000
C      -42.32170000     -32.22500000     -70.33940000
S      -41.55430000     -35.47490000     -72.92860000
S      -40.94000000     -32.99800000     -70.99680000
H      -42.23540000     -31.36890000     -69.61250000
