40
Properties=species:S:1:pos:R:3 #=T CELL(abcABC):=T 1.889726e+02=T 90.00000=T Traj:=T positionsangstrom=T Step:=T 0=T Bead:=T pbc="F F F"
C      -48.42710000     -31.71700000     -72.90080000
C      -47.95050000     -31.52280000     -71.59160000
C      -47.99950000     -32.60720000     -70.69520000
C      -48.63010000     -33.77990000     -71.00370000
C      -49.14830000     -33.85450000     -72.29520000
C      -49.12410000     -32.88370000     -73.23260000
H      -48.53330000     -30.84210000     -73.62520000
H      -47.70140000     -32.48730000     -69.67240000
H      -49.77360000     -34.76240000     -72.50720000
H      -49.50930000     -33.01840000     -74.22910000
C      -48.70240000     -34.95260000     -70.04240000
H      -49.69480000     -35.32010000     -70.04500000
H      -48.38560000     -34.58160000     -69.05090000
C      -47.21890000     -30.24150000     -71.19440000
H      -46.49350000     -29.89910000     -71.95500000
H      -47.86380000     -29.37060000     -71.14130000
S      -47.52150000     -36.27140000     -70.43340000
S      -46.46060000     -30.20730000     -69.48680000
C      -45.90130000     -35.36270000     -70.56270000
H      -45.94220000     -34.52440000     -69.85030000
H      -45.17690000     -35.96900000     -70.04860000
C      -44.69780000     -30.78510000     -69.76080000
H      -44.28750000     -30.85610000     -68.76340000
H      -44.19220000     -30.00600000     -70.35800000
C      -44.74990000     -32.06490000     -70.48840000
H      -45.41700000     -32.72870000     -69.97140000
H      -45.20020000     -31.85390000     -71.49120000
C      -45.54270000     -34.94240000     -71.93440000
H      -45.99710000     -33.96240000     -72.07850000
H      -46.08270000     -35.64420000     -72.61720000
C      -44.04190000     -34.95800000     -72.12800000
C      -43.34010000     -35.94830000     -72.78370000
C      -43.25290000     -33.89580000     -71.62240000
H      -43.74750000     -36.68470000     -73.45640000
C      -41.90470000     -34.04690000     -71.97620000
C      -43.42980000     -32.71560000     -70.81670000
C      -42.28610000     -31.97310000     -70.69980000
S      -41.67710000     -35.48470000     -73.00330000
S      -40.86880000     -32.77490000     -71.46610000
H      -42.14610000     -31.00900000     -70.19850000
