40
Properties=species:S:1:pos:R:3 #=T CELL(abcABC):=T 1.889726e+02=T 90.00000=T Traj:=T positionsangstrom=T Step:=T 0=T Bead:=T pbc="F F F"
C      -48.39430000     -31.48630000     -72.78830000
C      -48.03980000     -31.36050000     -71.41720000
C      -48.14840000     -32.42850000     -70.55050000
C      -48.61910000     -33.65290000     -71.00490000
C      -48.90200000     -33.79910000     -72.35430000
C      -48.77420000     -32.73380000     -73.28950000
H      -48.42510000     -30.53500000     -73.40430000
H      -47.98730000     -32.34610000     -69.47080000
H      -49.19930000     -34.78810000     -72.76420000
H      -49.05230000     -32.79560000     -74.32790000
C      -48.57320000     -34.76530000     -70.01010000
H      -49.63530000     -35.03490000     -69.90290000
H      -48.19570000     -34.41850000     -68.97690000
C      -47.73130000     -30.01530000     -70.82980000
H      -47.44310000     -29.40440000     -71.69230000
H      -48.65810000     -29.51560000     -70.55840000
S      -47.68920000     -36.27470000     -70.62210000
S      -46.41510000     -29.89440000     -69.55310000
C      -45.92800000     -35.77520000     -70.80920000
H      -45.62480000     -35.14000000     -69.95230000
H      -45.50320000     -36.81140000     -70.86190000
C      -44.85140000     -30.69570000     -70.31250000
H      -44.05320000     -30.16500000     -69.92210000
H      -44.75400000     -30.41140000     -71.38920000
C      -44.79610000     -32.34110000     -70.27460000
H      -45.15030000     -32.62610000     -69.32090000
H      -45.51860000     -32.69140000     -70.99810000
C      -45.60010000     -35.13770000     -72.17830000
H      -46.17900000     -34.23480000     -72.37150000
H      -45.90250000     -35.82140000     -73.00440000
C      -44.09980000     -34.97580000     -72.27900000
C      -43.26370000     -35.81060000     -73.00880000
C      -43.19830000     -33.96550000     -71.67860000
H      -43.60610000     -36.59570000     -73.64260000
C      -41.83610000     -34.25780000     -71.84240000
C      -43.45500000     -32.89790000     -70.72310000
C      -42.24040000     -32.30560000     -70.37950000
S      -41.51030000     -35.44950000     -73.06110000
S      -40.84520000     -33.01830000     -71.12060000
H      -42.19690000     -31.59400000     -69.51530000
