40
Properties=species:S:1:pos:R:3 #=T CELL(abcABC):=T 1.889726e+02=T 90.00000=T Traj:=T positionsangstrom=T Step:=T 0=T Bead:=T pbc="F F F"
C      -47.29560000     -36.41590000     -70.79700000
C      -46.12050000     -35.64720000     -70.73200000
C      -46.16170000     -34.44770000     -70.01970000
C      -47.37450000     -34.02240000     -69.45650000
C      -48.54170000     -34.82450000     -69.52600000
C      -48.47920000     -36.06510000     -70.16930000
H      -47.24440000     -37.24590000     -71.48390000
H      -45.28840000     -33.87650000     -69.85200000
H      -49.43280000     -34.46710000     -69.08630000
H      -49.35680000     -36.70760000     -70.21440000
C      -47.41800000     -32.67810000     -68.80250000
H      -46.29550000     -32.37240000     -68.53880000
H      -47.91030000     -32.59480000     -67.77450000
C      -44.93680000     -36.29190000     -71.35450000
H      -44.00140000     -35.80150000     -71.01310000
H      -44.97340000     -37.37970000     -71.21510000
S      -48.22990000     -31.49970000     -69.95930000
S      -45.04970000     -36.14990000     -73.26420000
C      -47.48800000     -31.76220000     -71.65360000
H      -47.17980000     -32.81310000     -71.71750000
H      -48.31190000     -31.61390000     -72.35120000
C      -45.89290000     -34.58620000     -73.57980000
H      -46.45690000     -34.31450000     -72.62450000
H      -46.60340000     -34.68330000     -74.37740000
C      -45.04120000     -33.43220000     -73.99440000
H      -44.59830000     -33.79000000     -74.93830000
H      -45.61740000     -32.58140000     -74.22120000
C      -46.33440000     -30.81700000     -71.94470000
H      -46.60130000     -29.71540000     -71.58720000
H      -46.14790000     -30.68240000     -72.99310000
C      -44.93660000     -31.23810000     -71.41770000
C      -44.38660000     -30.70330000     -70.24550000
C      -43.93020000     -32.06900000     -72.05800000
H      -44.87540000     -30.01390000     -69.70870000
C      -42.73170000     -32.19290000     -71.34340000
C      -43.91610000     -33.04680000     -73.06200000
C      -42.79790000     -33.84470000     -73.08770000
S      -42.70170000     -31.10980000     -69.94360000
S      -41.59460000     -33.42720000     -71.95140000
H      -42.47320000     -34.53520000     -73.78500000
