40
Properties=species:S:1:pos:R:3 #=T CELL(abcABC):=T 1.889726e+02=T 90.00000=T Traj:=T positionsangstrom=T Step:=T 0=T Bead:=T pbc="F F F"
C      -48.38320000     -31.51880000     -72.81660000
C      -48.05470000     -31.36630000     -71.47100000
C      -48.13850000     -32.44650000     -70.53030000
C      -48.59620000     -33.69210000     -70.98910000
C      -48.98450000     -33.79850000     -72.31480000
C      -48.93060000     -32.73080000     -73.23680000
H      -48.21780000     -30.70480000     -73.50450000
H      -47.77730000     -32.35290000     -69.53640000
H      -49.32460000     -34.71920000     -72.60500000
H      -49.09280000     -32.85970000     -74.30650000
C      -48.72400000     -34.89660000     -70.06750000
H      -49.66550000     -35.28500000     -69.90430000
H      -48.29230000     -34.64650000     -69.05990000
C      -47.40760000     -30.06390000     -71.12180000
H      -46.82550000     -29.59840000     -71.94740000
H      -48.19250000     -29.38070000     -70.76820000
S      -47.59550000     -36.37830000     -70.61680000
S      -46.42310000     -30.12490000     -69.50480000
C      -45.99940000     -35.60390000     -70.66970000
H      -45.99590000     -34.74550000     -69.96560000
H      -45.34990000     -36.27080000     -70.13920000
C      -44.75190000     -30.64820000     -70.13720000
H      -44.03070000     -30.45960000     -69.26340000
H      -44.59400000     -30.04530000     -71.00240000
C      -44.73740000     -32.17080000     -70.46160000
H      -45.16450000     -32.79730000     -69.63620000
H      -45.33030000     -32.36930000     -71.35820000
C      -45.59520000     -35.11230000     -72.13970000
H      -46.21960000     -34.27420000     -72.27660000
H      -45.96060000     -35.81630000     -72.91410000
C      -44.14750000     -34.80550000     -72.27960000
C      -43.43080000     -35.73190000     -73.02170000
C      -43.22110000     -33.83630000     -71.70160000
H      -43.76370000     -36.68050000     -73.37220000
C      -41.89900000     -34.17520000     -71.92180000
C      -43.40350000     -32.75400000     -70.83500000
C      -42.22210000     -32.10350000     -70.53050000
S      -41.60970000     -35.47450000     -73.00120000
S      -40.80150000     -33.03710000     -71.06080000
H      -42.14570000     -31.21260000     -69.88910000
