40
Properties=species:S:1:pos:R:3 #=T CELL(abcABC):=T 1.889726e+02=T 90.00000=T Traj:=T positionsangstrom=T Step:=T 0=T Bead:=T pbc="F F F"
C      -48.37660000     -31.23410000     -72.48240000
C      -48.28400000     -31.27290000     -71.05610000
C      -48.42570000     -32.47300000     -70.38590000
C      -48.53100000     -33.69010000     -71.12510000
C      -48.57190000     -33.66510000     -72.54160000
C      -48.53590000     -32.42710000     -73.19520000
H      -48.18140000     -30.33210000     -73.11820000
H      -48.27700000     -32.50120000     -69.27250000
H      -48.62060000     -34.60350000     -73.10010000
H      -48.66670000     -32.36200000     -74.23560000
C      -48.44790000     -34.90790000     -70.22500000
H      -49.41490000     -35.20400000     -69.74960000
H      -47.78960000     -34.63550000     -69.39060000
C      -47.90910000     -30.01770000     -70.33370000
H      -48.25530000     -29.15500000     -70.87590000
H      -48.31660000     -29.98530000     -69.30820000
S      -47.81800000     -36.54180000     -70.95720000
S      -46.04560000     -29.73380000     -70.00950000
C      -45.90820000     -36.24700000     -71.01510000
H      -45.59220000     -36.13420000     -69.95950000
H      -45.46690000     -37.22690000     -71.39680000
C      -45.13700000     -31.02520000     -70.87940000
H      -44.35530000     -30.49210000     -71.35830000
H      -45.90570000     -31.50500000     -71.54050000
C      -44.63350000     -32.18370000     -69.93640000
H      -44.47550000     -31.71470000     -68.91180000
H      -45.42380000     -32.99820000     -69.91310000
C      -45.66570000     -35.09500000     -72.00760000
H      -46.14200000     -34.21420000     -71.57630000
H      -46.26430000     -35.27670000     -72.99440000
C      -44.19290000     -34.87810000     -72.22360000
C      -43.43790000     -35.65290000     -73.07060000
C      -43.27580000     -33.97930000     -71.39540000
H      -43.84130000     -36.33590000     -73.80460000
C      -41.96180000     -34.14580000     -71.75920000
C      -43.37120000     -32.91890000     -70.40550000
C      -42.13230000     -32.31060000     -70.15160000
S      -41.68020000     -35.35660000     -73.01380000
S      -40.78970000     -33.07720000     -71.01050000
H      -41.98350000     -31.28490000     -69.76860000
