40
Properties=species:S:1:pos:R:3 #=T CELL(abcABC):=T 1.889726e+02=T 90.00000=T Traj:=T positionsangstrom=T Step:=T 0=T Bead:=T pbc="F F F"
C      -47.93820000     -33.19190000     -72.96000000
C      -48.25650000     -32.87280000     -71.64860000
C      -47.55620000     -31.74540000     -71.12460000
C      -46.72720000     -30.93230000     -71.88970000
C      -46.26580000     -31.40100000     -73.10870000
C      -46.98990000     -32.48330000     -73.68180000
H      -48.59650000     -33.92350000     -73.42230000
H      -47.86720000     -31.39000000     -70.13480000
H      -45.52760000     -30.86720000     -73.71980000
H      -46.76910000     -32.81950000     -74.62440000
C      -46.17320000     -29.57330000     -71.46100000
H      -46.97240000     -28.94330000     -71.09750000
H      -45.87160000     -29.07140000     -72.32870000
C      -49.35260000     -33.45150000     -70.81260000
H      -50.11660000     -32.75370000     -70.57030000
H      -49.77220000     -34.34520000     -71.37160000
S      -44.83660000     -29.59130000     -70.13330000
S      -48.68080000     -34.03510000     -69.11960000
C      -43.48000000     -30.70520000     -70.91740000
H      -43.44050000     -30.61660000     -71.98600000
H      -42.54090000     -30.32210000     -70.45480000
C      -47.40070000     -35.13220000     -69.76260000
H      -47.72220000     -35.60310000     -70.73040000
H      -47.33330000     -36.00500000     -69.08060000
C      -45.93540000     -34.48650000     -69.94080000
H      -46.09570000     -33.46620000     -70.40930000
H      -45.45150000     -34.35910000     -68.89700000
C      -43.86160000     -32.14590000     -70.56720000
H      -44.95990000     -32.18740000     -70.79420000
H      -43.82270000     -32.32870000     -69.48250000
C      -43.14290000     -33.29330000     -71.26440000
C      -41.98640000     -33.19250000     -71.93220000
C      -43.70570000     -34.64570000     -71.29950000
H      -41.21140000     -32.46210000     -71.84260000
C      -42.85970000     -35.49500000     -72.01560000
C      -44.87610000     -35.29330000     -70.76090000
C      -45.04340000     -36.59330000     -71.26310000
S      -41.35020000     -34.76180000     -72.59250000
S      -43.65680000     -37.10270000     -72.26150000
H      -45.71790000     -37.38620000     -70.98410000
