40
Properties=species:S:1:pos:R:3 #=T CELL(abcABC):=T 1.889726e+02=T 90.00000=T Traj:=T positionsangstrom=T Step:=T 0=T Bead:=T pbc="F F F"
C      -48.57430000     -33.16110000     -71.12730000
C      -48.36210000     -32.93790000     -72.51640000
C      -47.74960000     -31.72650000     -72.90410000
C      -47.19040000     -30.84560000     -71.97540000
C      -47.27330000     -31.20290000     -70.57490000
C      -48.01470000     -32.30760000     -70.16840000
H      -49.19760000     -34.03640000     -70.92140000
H      -47.78600000     -31.51800000     -73.94860000
H      -46.90980000     -30.38150000     -69.93340000
H      -48.19890000     -32.54850000     -69.10930000
C      -46.48120000     -29.63650000     -72.53750000
H      -46.51730000     -28.85640000     -71.76190000
H      -46.96230000     -29.15630000     -73.32840000
C      -48.64990000     -33.98250000     -73.50510000
H      -49.38970000     -34.68910000     -73.20060000
H      -48.94290000     -33.54950000     -74.50810000
S      -44.70600000     -29.92440000     -73.19460000
S      -47.02480000     -34.87250000     -74.00000000
C      -44.00590000     -30.90260000     -71.77090000
H      -42.91530000     -30.69390000     -71.83360000
H      -44.34380000     -30.55540000     -70.80620000
C      -46.24170000     -35.19000000     -72.31800000
H      -46.92800000     -35.93280000     -71.81960000
H      -46.30200000     -34.31990000     -71.67140000
C      -44.82650000     -35.66480000     -72.40740000
H      -44.79750000     -36.74090000     -72.75610000
H      -44.10880000     -35.21010000     -73.18800000
C      -44.25670000     -32.39520000     -71.87190000
H      -43.70210000     -32.76600000     -72.77780000
H      -45.28380000     -32.54150000     -72.00600000
C      -43.84420000     -33.07680000     -70.60080000
C      -43.53200000     -32.49260000     -69.40350000
C      -43.70580000     -34.53620000     -70.41440000
H      -43.41660000     -31.39370000     -69.25850000
C      -43.26170000     -34.94440000     -69.13910000
C      -44.03440000     -35.73060000     -71.16000000
C      -43.75570000     -36.87870000     -70.53160000
S      -42.86520000     -33.59710000     -68.18850000
S      -43.09830000     -36.60580000     -68.91290000
H      -44.17420000     -37.93320000     -70.76700000
