40
Properties=species:S:1:pos:R:3 #=T CELL(abcABC):=T 1.889726e+02=T 90.00000=T Traj:=T positionsangstrom=T Step:=T 0=T Bead:=T pbc="F F F"
C      -46.19330000     -31.57940000     -73.79360000
C      -45.78070000     -30.56880000     -72.86360000
C      -46.63090000     -30.30270000     -71.80440000
C      -47.87370000     -31.01540000     -71.68690000
C      -48.17310000     -32.06030000     -72.52390000
C      -47.38880000     -32.25000000     -73.67370000
H      -45.62720000     -31.80790000     -74.71790000
H      -46.30690000     -29.62360000     -70.97980000
H      -48.96630000     -32.76740000     -72.32900000
H      -47.73010000     -32.89720000     -74.51750000
C      -48.55660000     -30.84580000     -70.37210000
H      -49.62200000     -31.20160000     -70.44910000
H      -48.52440000     -29.78000000     -70.06880000
C      -44.35620000     -30.03470000     -72.83880000
H      -44.09810000     -29.77950000     -73.84570000
H      -44.17870000     -29.15790000     -72.25890000
S      -47.53560000     -31.74720000     -68.99140000
S      -43.21070000     -31.38780000     -72.17740000
C      -47.12760000     -33.34440000     -69.80720000
H      -48.04990000     -33.89110000     -70.08250000
H      -46.70770000     -33.15370000     -70.80830000
C      -43.81790000     -31.87450000     -70.41730000
H      -44.93330000     -32.03910000     -70.35480000
H      -43.66180000     -30.95880000     -69.78020000
C      -42.96250000     -33.10670000     -69.94970000
H      -41.87870000     -32.93200000     -69.94820000
H      -43.27300000     -33.26180000     -68.86440000
C      -46.18060000     -34.30400000     -68.97040000
H      -46.70950000     -34.73960000     -68.17990000
H      -45.32300000     -33.80970000     -68.55580000
C      -45.57000000     -35.36730000     -69.94050000
C      -46.35580000     -36.44850000     -70.31130000
C      -44.26510000     -35.29920000     -70.67150000
H      -47.32880000     -36.75650000     -69.89520000
C      -44.14450000     -36.34510000     -71.56980000
C      -43.19430000     -34.39600000     -70.71700000
C      -42.26340000     -34.73420000     -71.69100000
S      -45.54970000     -37.37350000     -71.56350000
S      -42.66840000     -36.20950000     -72.56330000
H      -41.41260000     -34.11180000     -71.93500000
