40
Properties=species:S:1:pos:R:3 #=T CELL(abcABC):=T 1.889726e+02=T 90.00000=T Traj:=T positionsangstrom=T Step:=T 0=T Bead:=T pbc="F F F"
C      -48.43010000     -31.71130000     -72.74950000
C      -48.03460000     -31.48490000     -71.43960000
C      -48.20170000     -32.53870000     -70.54030000
C      -48.65230000     -33.79500000     -70.90590000
C      -49.07130000     -33.94950000     -72.22060000
C      -48.96830000     -32.91210000     -73.14410000
H      -48.07780000     -31.01730000     -73.61470000
H      -47.81480000     -32.40600000     -69.58670000
H      -49.25310000     -34.90460000     -72.64880000
H      -49.13720000     -33.07140000     -74.24150000
C      -48.74940000     -34.90760000     -69.88580000
H      -49.73800000     -35.32910000     -69.85540000
H      -48.53320000     -34.56580000     -68.81870000
C      -47.48800000     -30.15040000     -71.00170000
H      -46.97190000     -29.69140000     -71.89250000
H      -48.37540000     -29.53740000     -70.80740000
S      -47.64050000     -36.38510000     -70.30540000
S      -46.49470000     -30.15440000     -69.43540000
C      -45.92940000     -35.70830000     -70.33410000
H      -45.96860000     -34.77890000     -69.74500000
H      -45.21230000     -36.44760000     -70.02170000
C      -44.87140000     -30.72520000     -70.10630000
H      -44.11810000     -30.36280000     -69.36120000
H      -44.59870000     -30.17680000     -70.99960000
C      -44.69200000     -32.21080000     -70.36250000
H      -44.89370000     -32.77290000     -69.39420000
H      -45.54380000     -32.58190000     -70.92400000
C      -45.51230000     -35.22830000     -71.76220000
H      -46.02420000     -34.31760000     -72.00800000
H      -45.73460000     -35.98850000     -72.50310000
C      -44.00820000     -34.95720000     -72.12660000
C      -43.28950000     -35.83880000     -72.94620000
C      -43.19410000     -33.81360000     -71.79070000
H      -43.58570000     -36.89390000     -73.03390000
C      -41.81780000     -33.95280000     -72.17240000
C      -43.35170000     -32.59430000     -71.00210000
C      -42.18000000     -31.88000000     -70.96470000
S      -41.55110000     -35.44390000     -73.03160000
S      -40.82290000     -32.64540000     -71.75430000
H      -42.04160000     -30.88950000     -70.49990000
