40
Properties=species:S:1:pos:R:3 #=T CELL(abcABC):=T 1.889726e+02=T 90.00000=T Traj:=T positionsangstrom=T Step:=T 0=T Bead:=T pbc="F F F"
C      -46.14400000     -31.77400000     -73.61340000
C      -45.64480000     -30.95140000     -72.58110000
C      -46.46340000     -30.62090000     -71.53290000
C      -47.77240000     -31.18090000     -71.41630000
C      -48.26460000     -31.94000000     -72.43660000
C      -47.44640000     -32.24490000     -73.53570000
H      -45.69370000     -31.93740000     -74.55460000
H      -45.98990000     -30.10410000     -70.63500000
H      -49.29560000     -32.24000000     -72.42190000
H      -47.73150000     -32.91760000     -74.32800000
C      -48.53460000     -30.94300000     -70.13530000
H      -49.54350000     -31.33240000     -70.09900000
H      -48.51520000     -29.87680000     -69.90380000
C      -44.30720000     -30.29960000     -72.72320000
H      -44.21590000     -29.88190000     -73.74170000
H      -44.09790000     -29.36420000     -72.05580000
S      -47.63000000     -31.80960000     -68.77080000
S      -43.00120000     -31.50910000     -72.33380000
C      -47.35920000     -33.51730000     -69.57970000
H      -48.23160000     -34.12680000     -69.56670000
H      -47.19330000     -33.34900000     -70.63990000
C      -43.60130000     -31.83880000     -70.62280000
H      -44.64080000     -31.93830000     -70.67050000
H      -43.46580000     -30.91630000     -70.01890000
C      -43.08760000     -33.04770000     -69.86510000
H      -42.02550000     -33.05480000     -69.67430000
H      -43.57330000     -33.32460000     -68.95770000
C      -46.20930000     -34.33260000     -69.09720000
H      -46.64840000     -34.91660000     -68.26650000
H      -45.48250000     -33.66490000     -68.56980000
C      -45.58410000     -35.22820000     -70.06580000
C      -46.34490000     -36.25900000     -70.55770000
C      -44.35670000     -35.10520000     -70.81660000
H      -47.28920000     -36.55420000     -70.17770000
C      -44.21830000     -36.14190000     -71.72890000
C      -43.17520000     -34.30000000     -70.77330000
C      -42.25140000     -34.61190000     -71.72590000
S      -45.63820000     -37.15540000     -71.85750000
S      -42.70070000     -36.04370000     -72.67380000
H      -41.34610000     -34.05330000     -71.94410000
