40
Properties=species:S:1:pos:R:3 #=T CELL(abcABC):=T 1.889726e+02=T 90.00000=T Traj:=T positionsangstrom=T Step:=T 0=T Bead:=T pbc="F F F"
C      -45.84460000     -32.27300000     -73.36930000
C      -45.63520000     -31.24570000     -72.44100000
C      -46.46000000     -31.19600000     -71.31320000
C      -47.44950000     -32.16460000     -71.04410000
C      -47.59160000     -33.19490000     -71.98050000
C      -46.76010000     -33.27760000     -73.09830000
H      -45.07190000     -32.39910000     -74.10730000
H      -46.24890000     -30.37100000     -70.61130000
H      -48.31840000     -34.02920000     -71.74040000
H      -46.86220000     -34.08670000     -73.87000000
C      -48.43270000     -31.90340000     -69.90730000
H      -49.27510000     -32.61290000     -69.85210000
H      -48.84690000     -30.90910000     -69.98750000
C      -44.56680000     -30.29770000     -72.69520000
H      -44.44850000     -30.25020000     -73.78720000
H      -44.69210000     -29.27490000     -72.26410000
S      -47.52140000     -31.95000000     -68.31470000
S      -42.94180000     -30.96560000     -72.09170000
C      -46.95040000     -33.78690000     -68.21130000
H      -46.90830000     -34.13520000     -67.11480000
H      -47.73720000     -34.39780000     -68.71060000
C      -43.13370000     -31.75140000     -70.39590000
H      -44.20960000     -31.78650000     -70.34240000
H      -42.78760000     -31.08930000     -69.59380000
C      -42.55590000     -33.22260000     -70.35830000
H      -41.49870000     -33.15280000     -70.49420000
H      -42.79300000     -33.54300000     -69.25560000
C      -45.54990000     -33.96130000     -68.93410000
H      -44.78660000     -34.37720000     -68.28810000
H      -45.13050000     -32.97600000     -69.21700000
C      -45.51660000     -34.91130000     -70.22940000
C      -46.47360000     -35.82400000     -70.53440000
C      -44.46400000     -34.79240000     -71.23330000
H      -47.40780000     -35.97660000     -70.07840000
C      -44.63480000     -35.75440000     -72.23080000
C      -43.19080000     -34.10130000     -71.38440000
C      -42.59530000     -34.44560000     -72.59690000
S      -46.18790000     -36.52690000     -72.09140000
S      -43.62800000     -35.48110000     -73.58250000
H      -41.58330000     -34.02010000     -72.89830000
