40
Properties=species:S:1:pos:R:3 #=T CELL(abcABC):=T 1.889726e+02=T 90.00000=T Traj:=T positionsangstrom=T Step:=T 0=T Bead:=T pbc="F F F"
C      -42.41650000     -36.07480000     -71.61910000
C      -43.68810000     -36.22090000     -72.08680000
C      -44.19390000     -35.50600000     -73.16840000
C      -43.39010000     -34.80180000     -74.05080000
C      -42.03000000     -34.70620000     -73.66270000
C      -41.55070000     -35.29150000     -72.46860000
H      -42.14390000     -36.65110000     -70.73000000
H      -45.28600000     -35.53930000     -73.47220000
H      -41.34520000     -34.04730000     -74.19410000
H      -40.52840000     -35.09580000     -72.04960000
C      -43.81340000     -34.08690000     -75.31310000
H      -44.07120000     -34.88570000     -75.97450000
H      -43.08830000     -33.62010000     -75.85550000
C      -44.67820000     -37.16150000     -71.40300000
H      -45.62660000     -37.20670000     -71.97630000
H      -44.25030000     -38.19730000     -71.42110000
S      -45.27250000     -33.06840000     -75.13920000
S      -45.02480000     -36.87530000     -69.60620000
C      -45.37850000     -32.37430000     -73.41940000
H      -44.57820000     -32.83630000     -72.77430000
H      -45.18420000     -31.33620000     -73.38560000
C      -45.90080000     -35.24430000     -69.48240000
H      -46.21300000     -35.17110000     -68.41030000
H      -46.91050000     -35.35120000     -70.01050000
C      -45.13340000     -34.08440000     -69.91430000
H      -44.12820000     -34.10890000     -69.51490000
H      -45.18420000     -34.11320000     -70.99570000
C      -46.65620000     -32.70370000     -72.69140000
H      -46.74140000     -33.75160000     -72.29730000
H      -47.59120000     -32.54310000     -73.24920000
C      -46.99830000     -31.71980000     -71.46090000
C      -47.68390000     -30.56010000     -71.65690000
C      -46.56890000     -31.84500000     -70.07910000
H      -48.27520000     -30.40020000     -72.51060000
C      -46.86770000     -30.71220000     -69.32180000
C      -45.73620000     -32.78440000     -69.31990000
C      -45.47900000     -32.31550000     -68.03620000
S      -47.85880000     -29.55810000     -70.21760000
S      -46.13000000     -30.75020000     -67.66990000
H      -44.87230000     -32.92960000     -67.30400000
