40
Properties=species:S:1:pos:R:3 #=T CELL(abcABC):=T 1.889726e+02=T 90.00000=T Traj:=T positionsangstrom=T Step:=T 0=T Bead:=T pbc="F F F"
C      -45.87610000     -32.63880000     -73.16620000
C      -45.64690000     -31.36000000     -72.56670000
C      -46.53480000     -30.92750000     -71.55990000
C      -47.61300000     -31.72560000     -71.12690000
C      -47.88230000     -32.89750000     -71.89590000
C      -47.06810000     -33.34100000     -72.94590000
H      -45.33280000     -32.89620000     -74.02690000
H      -46.27910000     -30.01810000     -70.98490000
H      -48.80620000     -33.34880000     -71.56300000
H      -47.23360000     -34.23200000     -73.54630000
C      -48.44590000     -31.51430000     -69.92990000
H      -49.37360000     -32.08540000     -70.08750000
H      -48.69730000     -30.47320000     -69.75910000
C      -44.49360000     -30.45140000     -72.99770000
H      -44.40850000     -30.40790000     -74.03670000
H      -44.63580000     -29.43220000     -72.54160000
S      -47.70900000     -32.06580000     -68.32340000
S      -42.80420000     -30.96490000     -72.47880000
C      -47.15130000     -33.80570000     -68.37460000
H      -47.15940000     -34.11360000     -67.26840000
H      -47.90780000     -34.42380000     -68.93500000
C      -42.87330000     -31.39550000     -70.66220000
H      -43.79010000     -31.10840000     -70.24910000
H      -42.11140000     -30.75290000     -70.17040000
C      -42.67660000     -32.90720000     -70.26530000
H      -41.65610000     -33.00600000     -69.97150000
H      -43.14030000     -32.95850000     -69.25860000
C      -45.69620000     -34.17530000     -68.82790000
H      -45.14680000     -34.71340000     -68.01250000
H      -45.11510000     -33.29890000     -68.97680000
C      -45.60820000     -34.90600000     -70.19340000
C      -46.46450000     -35.88270000     -70.55790000
C      -44.48390000     -34.81530000     -71.11290000
H      -47.26530000     -36.27160000     -69.97080000
C      -44.70080000     -35.64820000     -72.24820000
C      -43.26770000     -33.99900000     -71.23920000
C      -42.51880000     -34.40270000     -72.34670000
S      -45.99090000     -36.74010000     -72.03480000
S      -43.29250000     -35.70090000     -73.22470000
H      -41.63700000     -34.02690000     -72.73110000
