40
Properties=species:S:1:pos:R:3 #=T CELL(abcABC):=T 1.889726e+02=T 90.00000=T Traj:=T positionsangstrom=T Step:=T 0=T Bead:=T pbc="F F F"
C      -46.16220000     -32.12070000     -73.40710000
C      -45.75950000     -31.10230000     -72.52730000
C      -46.59890000     -30.77810000     -71.45210000
C      -47.70510000     -31.57040000     -71.11690000
C      -48.14440000     -32.58390000     -71.99170000
C      -47.35900000     -32.82650000     -73.11760000
H      -45.55850000     -32.40250000     -74.28820000
H      -46.22270000     -30.10030000     -70.67750000
H      -48.87870000     -33.33650000     -71.87540000
H      -47.62960000     -33.71850000     -73.62050000
C      -48.47510000     -31.36900000     -69.85430000
H      -49.39270000     -31.86030000     -70.02750000
H      -48.71600000     -30.27240000     -69.63430000
C      -44.48010000     -30.28280000     -72.62390000
H      -44.24300000     -30.05420000     -73.63310000
H      -44.55480000     -29.35750000     -72.02150000
S      -47.71130000     -32.01120000     -68.34900000
S      -42.88610000     -31.16770000     -72.24200000
C      -47.15140000     -33.79550000     -68.63120000
H      -47.26950000     -34.35560000     -67.71910000
H      -47.90040000     -34.27360000     -69.28240000
C      -43.22140000     -31.67760000     -70.53860000
H      -44.26590000     -31.53820000     -70.24210000
H      -42.66570000     -30.99610000     -69.80350000
C      -42.73930000     -33.02320000     -70.32620000
H      -41.64180000     -33.07060000     -70.38260000
H      -42.92200000     -33.38010000     -69.31950000
C      -45.75910000     -33.93180000     -69.25140000
H      -45.20360000     -34.45820000     -68.45900000
H      -45.27040000     -32.93260000     -69.41620000
C      -45.59090000     -34.87300000     -70.36420000
C      -46.39990000     -35.93430000     -70.72420000
C      -44.40700000     -34.87240000     -71.17260000
H      -47.37490000     -36.16500000     -70.25390000
C      -44.45030000     -35.88860000     -72.07470000
C      -43.18110000     -34.09830000     -71.25200000
C      -42.36940000     -34.64840000     -72.20060000
S      -45.79500000     -36.90780000     -72.09450000
S      -43.00640000     -35.94540000     -73.11820000
H      -41.30020000     -34.34610000     -72.38560000
