40
Properties=species:S:1:pos:R:3 #=T CELL(abcABC):=T 1.889726e+02=T 90.00000=T Traj:=T positionsangstrom=T Step:=T 0=T Bead:=T pbc="F F F"
C      -46.08220000     -32.16410000     -73.45780000
C      -45.73170000     -31.03270000     -72.70350000
C      -46.38410000     -30.84270000     -71.46670000
C      -47.47020000     -31.67000000     -71.13570000
C      -47.87150000     -32.72240000     -71.99770000
C      -47.11270000     -33.06210000     -73.09030000
H      -45.57900000     -32.35240000     -74.42920000
H      -46.27660000     -30.01750000     -70.79600000
H      -48.81910000     -33.30740000     -71.81840000
H      -47.48100000     -33.88630000     -73.66880000
C      -48.36500000     -31.36700000     -69.90590000
H      -49.44520000     -31.58390000     -70.08800000
H      -48.21330000     -30.33060000     -69.61290000
C      -44.42950000     -30.34030000     -73.06600000
H      -44.16420000     -30.37260000     -74.18580000
H      -44.52900000     -29.30600000     -72.71980000
S      -47.83620000     -32.09160000     -68.25950000
S      -43.02510000     -31.31570000     -72.32690000
C      -47.34010000     -33.81200000     -68.61450000
H      -47.41320000     -34.36010000     -67.64100000
H      -48.08460000     -34.15490000     -69.44880000
C      -43.35560000     -31.66270000     -70.57940000
H      -44.45700000     -31.66340000     -70.44560000
H      -42.94020000     -30.94160000     -69.96740000
C      -42.76800000     -33.09620000     -70.13660000
H      -41.69410000     -32.91380000     -70.21360000
H      -43.10500000     -33.16980000     -69.11300000
C      -45.81640000     -33.90660000     -69.07100000
H      -45.25860000     -34.19250000     -68.25490000
H      -45.40600000     -32.93290000     -69.34630000
C      -45.52980000     -34.90620000     -70.20660000
C      -46.40720000     -35.86280000     -70.61370000
C      -44.34420000     -34.99000000     -71.08560000
H      -47.40470000     -36.00860000     -70.32510000
C      -44.42620000     -35.90110000     -72.10930000
C      -43.12210000     -34.23580000     -71.07340000
C      -42.29170000     -34.44500000     -72.13960000
S      -45.88760000     -36.75510000     -72.03790000
S      -43.04640000     -35.66160000     -73.19660000
H      -41.29990000     -34.08490000     -72.48340000
