40
Properties=species:S:1:pos:R:3 #=T CELL(abcABC):=T 1.889726e+02=T 90.00000=T Traj:=T positionsangstrom=T Step:=T 0=T Bead:=T pbc="F F F"
C      -46.04310000     -32.31940000     -73.37980000
C      -45.65310000     -31.22870000     -72.58020000
C      -46.44620000     -31.02170000     -71.46160000
C      -47.48780000     -31.83110000     -71.07500000
C      -47.83860000     -32.95880000     -71.84450000
C      -47.04130000     -33.20500000     -72.95460000
H      -45.37450000     -32.72000000     -74.09210000
H      -46.35500000     -30.16750000     -70.83440000
H      -48.66290000     -33.66320000     -71.49680000
H      -47.22830000     -34.09210000     -73.59790000
C      -48.31500000     -31.38440000     -69.91610000
H      -49.35870000     -31.76600000     -69.99900000
H      -48.40390000     -30.32850000     -69.82170000
C      -44.51010000     -30.38810000     -72.96570000
H      -44.44610000     -30.15040000     -74.06390000
H      -44.55060000     -29.43890000     -72.50420000
S      -47.69820000     -32.05270000     -68.21800000
S      -42.82170000     -31.22620000     -72.51340000
C      -47.45740000     -33.84690000     -68.72820000
H      -47.80430000     -34.44460000     -67.96650000
H      -48.07570000     -34.12900000     -69.54890000
C      -43.26490000     -31.51650000     -70.72790000
H      -44.39410000     -31.35480000     -70.64130000
H      -42.76530000     -30.79560000     -70.05960000
C      -42.74860000     -32.87670000     -70.26210000
H      -41.68090000     -32.92940000     -70.27610000
H      -43.10470000     -33.12060000     -69.24690000
C      -45.91580000     -34.06180000     -69.01610000
H      -45.27600000     -34.34860000     -68.10330000
H      -45.53360000     -33.06540000     -69.25220000
C      -45.62830000     -34.91260000     -70.16110000
C      -46.43420000     -35.90210000     -70.56030000
C      -44.39350000     -34.84220000     -70.97280000
H      -47.35040000     -36.10640000     -70.06270000
C      -44.51600000     -35.71400000     -72.08120000
C      -43.18190000     -34.04610000     -71.11650000
C      -42.43650000     -34.32650000     -72.24640000
S      -45.97290000     -36.72780000     -72.06180000
S      -43.11860000     -35.65290000     -73.19180000
H      -41.52630000     -33.86500000     -72.57640000
