40
Properties=species:S:1:pos:R:3 #=T CELL(abcABC):=T 1.889726e+02=T 90.00000=T Traj:=T positionsangstrom=T Step:=T 0=T Bead:=T pbc="F F F"
C      -46.10370000     -32.02360000     -73.19680000
C      -45.87260000     -30.90960000     -72.26910000
C      -46.78910000     -30.56560000     -71.23610000
C      -47.95760000     -31.40920000     -71.06530000
C      -48.07240000     -32.50850000     -71.95280000
C      -47.25010000     -32.76030000     -73.04310000
H      -45.40240000     -32.22000000     -73.96660000
H      -46.69120000     -29.61450000     -70.71800000
H      -48.93320000     -33.18770000     -71.75520000
H      -47.40650000     -33.53040000     -73.82530000
C      -48.75740000     -31.31220000     -69.78910000
H      -49.73270000     -31.82340000     -69.79410000
H      -48.79700000     -30.26180000     -69.60640000
C      -44.60890000     -29.94750000     -72.38070000
H      -44.64010000     -29.39340000     -73.35890000
H      -44.50210000     -29.29520000     -71.51670000
S      -47.79870000     -32.01200000     -68.28640000
S      -42.99370000     -31.04960000     -72.28530000
C      -47.20580000     -33.72610000     -68.92080000
H      -47.09520000     -34.38680000     -68.01540000
H      -48.04650000     -34.04420000     -69.58660000
C      -43.13120000     -31.85170000     -70.65790000
H      -44.19620000     -31.89520000     -70.33770000
H      -42.70300000     -31.28500000     -69.81370000
C      -42.42810000     -33.19270000     -70.50090000
H      -41.39350000     -33.12990000     -70.86080000
H      -42.45500000     -33.57280000     -69.49840000
C      -45.88840000     -33.63600000     -69.62910000
H      -45.09980000     -33.51060000     -68.93420000
H      -45.90780000     -32.75190000     -70.16710000
C      -45.55780000     -34.84320000     -70.44220000
C      -46.45810000     -35.77350000     -70.94250000
C      -44.30160000     -34.98240000     -71.22180000
H      -47.52790000     -35.89210000     -70.73350000
C      -44.33060000     -36.09330000     -72.10200000
C      -43.01590000     -34.33970000     -71.35330000
C      -42.12840000     -34.83690000     -72.28790000
S      -45.84550000     -36.98100000     -72.03750000
S      -42.77530000     -36.31350000     -72.99720000
H      -41.16840000     -34.43910000     -72.47990000
