40
Properties=species:S:1:pos:R:3 #=T CELL(abcABC):=T 1.889726e+02=T 90.00000=T Traj:=T positionsangstrom=T Step:=T 0=T Bead:=T pbc="F F F"
C      -46.07580000     -32.07400000     -73.22740000
C      -45.79010000     -31.08590000     -72.26280000
C      -46.60010000     -30.94310000     -71.11410000
C      -47.80720000     -31.65210000     -71.01570000
C      -48.13740000     -32.58990000     -72.02030000
C      -47.26490000     -32.75950000     -73.09820000
H      -45.38480000     -32.32790000     -74.02780000
H      -46.20310000     -30.12090000     -70.44020000
H      -49.07040000     -33.09490000     -72.13780000
H      -47.57380000     -33.53980000     -73.82170000
C      -48.62180000     -31.46340000     -69.78540000
H      -49.50700000     -32.16970000     -69.82840000
H      -49.12850000     -30.47990000     -69.63370000
C      -44.61000000     -30.13450000     -72.48500000
H      -44.75250000     -29.62940000     -73.44730000
H      -44.64190000     -29.24340000     -71.78480000
S      -47.59400000     -31.99850000     -68.34680000
S      -42.97900000     -30.90180000     -72.30190000
C      -47.27080000     -33.66790000     -68.91790000
H      -47.55560000     -34.45210000     -68.18990000
H      -47.86880000     -33.76850000     -69.81500000
C      -43.13970000     -31.70430000     -70.58490000
H      -44.16770000     -31.68920000     -70.33260000
H      -42.52910000     -31.02340000     -69.94940000
C      -42.65140000     -33.11720000     -70.44430000
H      -41.54220000     -33.01130000     -70.34170000
H      -42.88720000     -33.33180000     -69.34680000
C      -45.86430000     -33.78630000     -69.43810000
H      -45.15030000     -34.01130000     -68.54980000
H      -45.46680000     -32.84270000     -69.82090000
C      -45.58870000     -34.86090000     -70.43800000
C      -46.48580000     -35.82560000     -70.78970000
C      -44.35020000     -34.98530000     -71.21980000
H      -47.48060000     -36.07670000     -70.29150000
C      -44.40150000     -36.05660000     -72.10020000
C      -43.13700000     -34.19020000     -71.38560000
C      -42.20100000     -34.79280000     -72.20090000
S      -45.84300000     -36.90520000     -72.09400000
S      -42.92780000     -36.15750000     -73.05780000
H      -41.32880000     -34.28050000     -72.55600000
