40
Properties=species:S:1:pos:R:3 #=T CELL(abcABC):=T 1.889726e+02=T 90.00000=T Traj:=T positionsangstrom=T Step:=T 0=T Bead:=T pbc="F F F"
C      -47.29000000     -36.36750000     -69.79470000
C      -46.32900000     -35.79210000     -70.58920000
C      -45.94690000     -34.47600000     -70.20910000
C      -46.47470000     -33.78230000     -69.09270000
C      -47.49610000     -34.38470000     -68.36380000
C      -47.84740000     -35.62380000     -68.73300000
H      -47.67380000     -37.37350000     -70.08860000
H      -45.11320000     -33.94220000     -70.79980000
H      -47.83690000     -33.96160000     -67.37230000
H      -48.42060000     -36.22740000     -68.14070000
C      -45.83550000     -32.55690000     -68.60250000
H      -44.89380000     -32.48800000     -69.16620000
H      -45.72310000     -32.43770000     -67.50150000
C      -45.75760000     -36.53000000     -71.75490000
H      -44.67160000     -36.31880000     -71.88180000
H      -45.87290000     -37.63470000     -71.56420000
S      -46.91350000     -30.99560000     -69.14550000
S      -46.52840000     -36.25610000     -73.41020000
C      -47.21440000     -31.19170000     -70.96910000
H      -47.39010000     -32.32370000     -71.19130000
H      -48.22190000     -30.77530000     -71.12530000
C      -47.09340000     -34.48860000     -73.27780000
H      -47.36600000     -34.20210000     -72.23850000
H      -48.03150000     -34.47490000     -73.80300000
C      -46.08070000     -33.46460000     -73.90090000
H      -45.98330000     -33.79400000     -74.98370000
H      -46.68690000     -32.49360000     -73.91850000
C      -46.09530000     -30.49460000     -71.74740000
H      -45.94080000     -29.45330000     -71.49090000
H      -46.32570000     -30.33710000     -72.87420000
C      -44.72310000     -31.16400000     -71.61030000
C      -43.81620000     -30.62950000     -70.74070000
C      -44.14630000     -32.33920000     -72.42080000
H      -44.03260000     -29.84430000     -69.98900000
C      -42.77160000     -32.44960000     -72.13110000
C      -44.67470000     -33.32910000     -73.38130000
C      -43.64550000     -34.23150000     -73.65350000
S      -42.19130000     -31.39210000     -70.78850000
S      -42.13110000     -33.89850000     -72.78530000
H      -43.68430000     -35.19820000     -74.25390000
