40
Properties=species:S:1:pos:R:3 #=T CELL(abcABC):=T 1.889726e+02=T 90.00000=T Traj:=T positionsangstrom=T Step:=T 0=T Bead:=T pbc="F F F"
C      -46.05050000     -31.19560000     -73.13490000
C      -45.56770000     -30.86220000     -71.88110000
C      -46.15020000     -31.42240000     -70.71150000
C      -47.13740000     -32.39360000     -70.78190000
C      -47.66440000     -32.71010000     -72.04930000
C      -47.10150000     -32.18440000     -73.18510000
H      -45.72370000     -30.52660000     -73.97320000
H      -45.70160000     -31.03720000     -69.75920000
H      -48.56640000     -33.38350000     -72.17040000
H      -47.49910000     -32.44270000     -74.20300000
C      -47.84350000     -32.95850000     -69.56310000
H      -48.14780000     -33.98420000     -69.83740000
H      -48.78600000     -32.36950000     -69.32150000
C      -44.35520000     -29.94500000     -71.68860000
H      -44.31160000     -29.23810000     -72.52840000
H      -44.46290000     -29.45350000     -70.71120000
S      -46.74950000     -32.81750000     -68.08380000
S      -42.76090000     -30.80530000     -71.74430000
C      -46.00660000     -34.43430000     -67.95890000
H      -45.56220000     -34.47280000     -66.97720000
H      -46.77620000     -35.19780000     -68.03300000
C      -43.00190000     -32.08120000     -70.39190000
H      -44.11680000     -32.23490000     -70.20890000
H      -42.49660000     -31.76260000     -69.43580000
C      -42.50360000     -33.34810000     -71.01160000
H      -41.62080000     -33.11100000     -71.65250000
H      -42.21310000     -34.04900000     -70.26830000
C      -44.91320000     -34.76340000     -68.88210000
H      -44.43110000     -35.68590000     -68.43580000
H      -44.11560000     -33.96580000     -68.87360000
C      -45.30540000     -35.21520000     -70.30270000
C      -46.38980000     -36.02200000     -70.55690000
C      -44.74040000     -34.71660000     -71.51360000
H      -46.94170000     -36.50920000     -69.78950000
C      -45.34840000     -35.33430000     -72.65220000
C      -43.49870000     -33.99880000     -71.91380000
C      -43.31270000     -34.06830000     -73.28310000
S      -46.67250000     -36.40160000     -72.28430000
S      -44.58570000     -34.95260000     -74.22310000
H      -42.45510000     -33.62280000     -73.81520000
