40
Properties=species:S:1:pos:R:3 #=T CELL(abcABC):=T 1.889726e+02=T 90.00000=T Traj:=T positionsangstrom=T Step:=T 0=T Bead:=T pbc="F F F"
C      -45.79460000     -32.17440000     -73.39440000
C      -45.65170000     -31.17880000     -72.44180000
C      -46.51310000     -31.18030000     -71.31800000
C      -47.50020000     -32.15810000     -71.13690000
C      -47.74820000     -33.02290000     -72.24740000
C      -46.94990000     -33.02110000     -73.38370000
H      -45.26970000     -32.00980000     -74.28920000
H      -46.33830000     -30.36800000     -70.63380000
H      -48.66090000     -33.61990000     -72.26830000
H      -47.16900000     -33.70970000     -74.24060000
C      -48.38230000     -32.20500000     -69.88640000
H      -49.03860000     -33.11860000     -70.01310000
H      -49.09750000     -31.37760000     -69.85930000
C      -44.48770000     -30.18310000     -72.53720000
H      -44.41900000     -29.83700000     -73.55760000
H      -44.79040000     -29.35660000     -71.90670000
S      -47.50230000     -32.23630000     -68.27000000
S      -42.77790000     -30.86680000     -72.14250000
C      -46.63070000     -33.98710000     -68.14070000
H      -46.61270000     -34.00040000     -67.09170000
H      -47.29800000     -34.72450000     -68.47850000
C      -43.14940000     -31.74060000     -70.61150000
H      -44.21550000     -31.84930000     -70.53290000
H      -42.81940000     -31.10770000     -69.73790000
C      -42.55310000     -33.11300000     -70.46890000
H      -41.48440000     -33.14470000     -70.67580000
H      -42.60260000     -33.49320000     -69.42030000
C      -45.21710000     -34.24750000     -68.79550000
H      -44.70230000     -34.88000000     -68.08620000
H      -44.67420000     -33.29680000     -68.86790000
C      -45.48170000     -34.89250000     -70.12120000
C      -46.50220000     -35.74290000     -70.37470000
C      -44.52370000     -34.73240000     -71.18500000
H      -47.11750000     -36.24500000     -69.65690000
C      -44.83380000     -35.57350000     -72.21820000
C      -43.26270000     -34.06560000     -71.36900000
C      -42.70840000     -34.39270000     -72.60710000
S      -46.34680000     -36.45630000     -71.99580000
S      -43.63960000     -35.52200000     -73.56850000
H      -41.68260000     -34.09740000     -72.85360000
