40
Properties=species:S:1:pos:R:3 #=T CELL(abcABC):=T 1.889726e+02=T 90.00000=T Traj:=T positionsangstrom=T Step:=T 0=T Bead:=T pbc="F F F"
C      -47.42610000     -36.48690000     -69.72710000
C      -46.36170000     -35.92210000     -70.50930000
C      -45.93290000     -34.65460000     -70.09480000
C      -46.48690000     -33.86570000     -68.99970000
C      -47.50270000     -34.49200000     -68.31090000
C      -48.00180000     -35.74790000     -68.65260000
H      -47.87830000     -37.44950000     -69.99580000
H      -45.01000000     -34.33090000     -70.64810000
H      -48.03180000     -33.85660000     -67.64530000
H      -48.88660000     -36.13240000     -68.20780000
C      -45.90270000     -32.43800000     -68.72930000
H      -44.92480000     -32.39860000     -69.29910000
H      -45.72600000     -32.43480000     -67.63250000
C      -45.64820000     -36.63200000     -71.65520000
H      -44.61540000     -36.35420000     -71.56800000
H      -45.73700000     -37.66200000     -71.60830000
S      -47.01680000     -31.05620000     -69.11300000
S      -46.29130000     -36.13310000     -73.33210000
C      -47.15780000     -31.13020000     -70.92910000
H      -47.07630000     -32.08770000     -71.35190000
H      -48.12640000     -30.66890000     -71.19050000
C      -46.99750000     -34.42160000     -73.31030000
H      -47.31690000     -34.01870000     -72.36060000
H      -47.88830000     -34.41030000     -73.96010000
C      -46.12740000     -33.25190000     -73.85620000
H      -46.06110000     -33.15620000     -74.92120000
H      -46.65820000     -32.36750000     -73.56830000
C      -46.02090000     -30.41780000     -71.75610000
H      -45.96950000     -29.43250000     -71.31130000
H      -46.35780000     -30.47640000     -72.77150000
C      -44.62510000     -31.11880000     -71.60740000
C      -43.62610000     -30.51990000     -70.89890000
C      -44.18050000     -32.36080000     -72.28000000
H      -43.60650000     -29.50400000     -70.49440000
C      -42.88320000     -32.65930000     -71.98300000
C      -44.74560000     -33.19890000     -73.31720000
C      -43.86510000     -34.19940000     -73.65720000
S      -42.12430000     -31.45540000     -70.88700000
S      -42.24350000     -33.86610000     -73.03700000
H      -43.79120000     -34.89490000     -74.55300000
