40
Properties=species:S:1:pos:R:3 #=T CELL(abcABC):=T 1.889726e+02=T 90.00000=T Traj:=T positionsangstrom=T Step:=T 0=T Bead:=T pbc="F F F"
C      -47.10460000     -36.41780000     -69.62390000
C      -46.10770000     -35.72060000     -70.31570000
C      -45.71500000     -34.45270000     -69.89190000
C      -46.37580000     -33.87080000     -68.78800000
C      -47.57010000     -34.51150000     -68.25040000
C      -47.94360000     -35.76570000     -68.68250000
H      -47.41030000     -37.35730000     -70.01850000
H      -45.02500000     -33.88550000     -70.44230000
H      -48.14760000     -34.16260000     -67.40690000
H      -48.90320000     -36.24600000     -68.40260000
C      -45.88440000     -32.55520000     -68.24750000
H      -44.85640000     -32.38570000     -68.60420000
H      -46.10490000     -32.41930000     -67.19360000
C      -45.38090000     -36.36550000     -71.47050000
H      -44.46400000     -35.86730000     -71.65480000
H      -45.18600000     -37.38820000     -71.31910000
S      -47.07810000     -31.18870000     -68.90220000
S      -46.47520000     -36.20780000     -73.00680000
C      -47.20330000     -31.27260000     -70.79370000
H      -47.17500000     -32.33290000     -71.02370000
H      -48.17180000     -30.83350000     -71.03100000
C      -46.95190000     -34.37530000     -72.93240000
H      -47.02460000     -34.07980000     -71.88490000
H      -47.99400000     -34.38400000     -73.14130000
C      -46.28210000     -33.29780000     -73.85330000
H      -46.44280000     -33.41330000     -74.94850000
H      -46.70010000     -32.33110000     -73.52150000
C      -46.09320000     -30.57010000     -71.65860000
H      -45.98090000     -29.50270000     -71.33550000
H      -46.58490000     -30.49910000     -72.66560000
C      -44.70770000     -31.24610000     -71.67940000
C      -43.66510000     -30.68970000     -70.96430000
C      -44.26410000     -32.39620000     -72.48600000
H      -43.71100000     -29.93130000     -70.25040000
C      -42.82710000     -32.54270000     -72.41410000
C      -44.80400000     -33.17700000     -73.56760000
C      -43.86430000     -34.09450000     -74.15320000
S      -42.15170000     -31.42870000     -71.24070000
S      -42.24580000     -33.75540000     -73.50990000
H      -43.93680000     -34.72980000     -74.96950000
