40
Properties=species:S:1:pos:R:3 #=T CELL(abcABC):=T 1.889726e+02=T 90.00000=T Traj:=T positionsangstrom=T Step:=T 0=T Bead:=T pbc="F F F"
C      -46.19840000     -31.47870000     -72.37570000
C      -45.52670000     -31.01850000     -71.21150000
C      -45.91800000     -31.41980000     -69.94620000
C      -47.05500000     -32.20520000     -69.85390000
C      -47.71460000     -32.67910000     -70.97680000
C      -47.35470000     -32.23110000     -72.26350000
H      -45.83230000     -31.16430000     -73.36830000
H      -45.45840000     -31.07220000     -69.09310000
H      -48.70190000     -33.12400000     -70.83930000
H      -47.92710000     -32.58820000     -73.09570000
C      -47.49600000     -32.51870000     -68.50510000
H      -48.47960000     -33.02620000     -68.51180000
H      -47.62260000     -31.62610000     -67.93920000
C      -44.29770000     -30.12840000     -71.33370000
H      -44.23790000     -29.41760000     -72.16110000
H      -44.01780000     -29.56560000     -70.46590000
S      -46.43610000     -33.58160000     -67.46930000
S      -42.69310000     -31.15470000     -71.89810000
C      -46.04400000     -35.20680000     -68.41350000
H      -45.51650000     -35.80090000     -67.66810000
H      -46.91150000     -35.81620000     -68.63460000
C      -42.53190000     -32.48050000     -70.60820000
H      -43.45160000     -32.42850000     -69.93390000
H      -41.61120000     -32.28300000     -70.04740000
C      -42.41370000     -33.94280000     -71.21020000
H      -41.36470000     -34.08900000     -71.62010000
H      -42.42190000     -34.68650000     -70.41900000
C      -45.00150000     -34.90180000     -69.55130000
H      -44.11020000     -35.58590000     -69.47090000
H      -44.71980000     -33.84820000     -69.43190000
C      -45.56550000     -35.03980000     -70.96190000
C      -46.80790000     -35.53870000     -71.28190000
C      -44.78280000     -34.70730000     -72.09490000
H      -47.53800000     -35.95480000     -70.60870000
C      -45.51270000     -34.89170000     -73.24850000
C      -43.39810000     -34.26090000     -72.31250000
C      -43.13770000     -34.13050000     -73.65950000
S      -47.15110000     -35.34290000     -73.00690000
S      -44.59320000     -34.38780000     -74.66000000
H      -42.26880000     -33.77380000     -74.15740000
