40
Properties=species:S:1:pos:R:3 #=T CELL(abcABC):=T 1.889726e+02=T 90.00000=T Traj:=T positionsangstrom=T Step:=T 0=T Bead:=T pbc="F F F"
C      -46.23490000     -31.00210000     -72.68250000
C      -45.51760000     -30.86550000     -71.46180000
C      -46.00900000     -31.42060000     -70.25930000
C      -47.22040000     -32.12840000     -70.30420000
C      -47.87340000     -32.23070000     -71.58810000
C      -47.44090000     -31.69350000     -72.76550000
H      -45.93960000     -30.45390000     -73.56920000
H      -45.44750000     -31.31270000     -69.29370000
H      -48.76440000     -32.85780000     -71.64010000
H      -47.96440000     -31.71590000     -73.72810000
C      -47.93250000     -32.75080000     -69.12440000
H      -48.48670000     -33.67530000     -69.32410000
H      -48.68950000     -32.08070000     -68.67700000
C      -44.23990000     -30.01250000     -71.48500000
H      -44.56630000     -29.14830000     -72.13950000
H      -44.00360000     -29.67230000     -70.50460000
S      -46.79580000     -33.19990000     -67.73420000
S      -42.86660000     -31.04800000     -72.06980000
C      -46.10520000     -34.91110000     -68.15800000
H      -45.97270000     -35.34200000     -67.15580000
H      -46.90580000     -35.48700000     -68.59010000
C      -42.81650000     -32.15210000     -70.59410000
H      -43.85670000     -32.35160000     -70.24570000
H      -42.30200000     -31.77400000     -69.76150000
C      -42.30950000     -33.58230000     -71.02800000
H      -41.31180000     -33.51060000     -71.44620000
H      -42.32580000     -34.10230000     -70.09190000
C      -44.99830000     -34.82700000     -69.13680000
H      -44.19000000     -35.57220000     -68.85370000
H      -44.51710000     -33.83350000     -69.20610000
C      -45.40170000     -35.14570000     -70.57110000
C      -46.57930000     -35.74870000     -70.93880000
C      -44.59330000     -34.89490000     -71.76390000
H      -47.49180000     -35.95130000     -70.41340000
C      -45.25880000     -35.24260000     -72.94050000
C      -43.28200000     -34.31830000     -72.03600000
C      -42.96300000     -34.28900000     -73.39370000
S      -46.83850000     -35.91030000     -72.67600000
S      -44.28010000     -34.99840000     -74.36470000
H      -42.16910000     -33.71730000     -73.82100000
