40
Properties=species:S:1:pos:R:3 #=T CELL(abcABC):=T 1.889726e+02=T 90.00000=T Traj:=T positionsangstrom=T Step:=T 0=T Bead:=T pbc="F F F"
C      -46.18810000     -31.34930000     -72.25020000
C      -45.39120000     -30.90130000     -71.20470000
C      -45.82780000     -31.35400000     -69.96680000
C      -47.00100000     -32.05830000     -69.71520000
C      -47.81170000     -32.48130000     -70.77760000
C      -47.31710000     -32.17650000     -72.02290000
H      -45.90530000     -31.16360000     -73.28970000
H      -45.20810000     -31.16620000     -69.02850000
H      -48.81540000     -32.89240000     -70.56950000
H      -47.98710000     -32.33980000     -72.86130000
C      -47.30140000     -32.47300000     -68.30960000
H      -48.20870000     -32.97540000     -68.35020000
H      -47.29600000     -31.64620000     -67.61570000
C      -44.09090000     -30.10780000     -71.34940000
H      -44.28560000     -29.47600000     -72.19330000
H      -43.91360000     -29.42880000     -70.52270000
S      -46.06990000     -33.68020000     -67.59010000
S      -42.61780000     -31.15420000     -71.72150000
C      -46.22500000     -35.27360000     -68.51070000
H      -46.24170000     -36.07330000     -67.83380000
H      -47.18680000     -35.30310000     -69.03100000
C      -42.51330000     -32.59110000     -70.57430000
H      -43.38280000     -32.57260000     -69.89840000
H      -41.51530000     -32.51020000     -69.93370000
C      -42.48170000     -33.92660000     -71.27160000
H      -41.60360000     -34.05750000     -71.87320000
H      -42.69790000     -34.69640000     -70.48770000
C      -45.19110000     -35.40960000     -69.58680000
H      -44.70150000     -36.31410000     -69.33780000
H      -44.41090000     -34.68370000     -69.46520000
C      -45.68170000     -35.34810000     -71.01550000
C      -46.93300000     -35.67040000     -71.45480000
C      -44.94080000     -34.76790000     -72.11540000
H      -47.73390000     -35.88880000     -70.85100000
C      -45.59410000     -34.86940000     -73.34410000
C      -43.60370000     -34.10950000     -72.31240000
C      -43.41470000     -33.64760000     -73.60070000
S      -47.16850000     -35.61070000     -73.20910000
S      -44.69320000     -34.10490000     -74.68940000
H      -42.45360000     -33.18610000     -73.80970000
