40
Properties=species:S:1:pos:R:3 #=T CELL(abcABC):=T 1.889726e+02=T 90.00000=T Traj:=T positionsangstrom=T Step:=T 0=T Bead:=T pbc="F F F"
C      -45.99840000     -31.41590000     -72.20240000
C      -45.26340000     -30.91210000     -71.11220000
C      -45.76750000     -31.22020000     -69.86670000
C      -46.92880000     -32.05620000     -69.68090000
C      -47.70530000     -32.39730000     -70.77920000
C      -47.24460000     -32.03680000     -72.07090000
H      -45.77140000     -31.12820000     -73.22620000
H      -45.29530000     -30.91490000     -68.98110000
H      -48.59830000     -32.99600000     -70.58120000
H      -47.70000000     -32.48550000     -72.95160000
C      -47.23650000     -32.55370000     -68.32470000
H      -48.21570000     -33.11650000     -68.30850000
H      -47.37750000     -31.77720000     -67.51780000
C      -43.99340000     -30.07840000     -71.20110000
H      -43.99760000     -29.42020000     -72.10620000
H      -43.62810000     -29.55860000     -70.29870000
S      -45.92370000     -33.60050000     -67.67060000
S      -42.52000000     -31.14210000     -71.61640000
C      -46.27920000     -35.24070000     -68.58290000
H      -46.40840000     -36.00670000     -67.74500000
H      -47.22920000     -35.11310000     -69.05540000
C      -42.68240000     -32.58750000     -70.52030000
H      -43.60750000     -32.45880000     -69.92150000
H      -41.93500000     -32.58610000     -69.84480000
C      -42.62700000     -33.89410000     -71.23850000
H      -41.59020000     -33.90290000     -71.55830000
H      -42.55160000     -34.64980000     -70.47760000
C      -45.24310000     -35.65330000     -69.62080000
H      -44.84020000     -36.70210000     -69.53820000
H      -44.36270000     -34.99390000     -69.57370000
C      -45.66210000     -35.52470000     -71.12060000
C      -46.86880000     -36.04160000     -71.58300000
C      -45.01210000     -34.74540000     -72.13040000
H      -47.54940000     -36.67850000     -70.95870000
C      -45.73800000     -34.72520000     -73.32420000
C      -43.73420000     -34.09510000     -72.30570000
C      -43.47180000     -33.82100000     -73.64460000
S      -47.23130000     -35.58080000     -73.27470000
S      -44.90430000     -34.00320000     -74.69020000
H      -42.55540000     -33.22630000     -73.85530000
