40
Properties=species:S:1:pos:R:3 #=T CELL(abcABC):=T 1.889726e+02=T 90.00000=T Traj:=T positionsangstrom=T Step:=T 0=T Bead:=T pbc="F F F"
C      -46.20500000     -31.03930000     -73.07440000
C      -45.59230000     -30.82170000     -71.86770000
C      -46.20260000     -31.42450000     -70.71290000
C      -47.27180000     -32.28890000     -70.68530000
C      -47.86300000     -32.45320000     -71.97310000
C      -47.29880000     -31.90110000     -73.12510000
H      -45.67650000     -30.64930000     -73.99210000
H      -45.59530000     -31.17100000     -69.86260000
H      -48.68220000     -33.12430000     -72.16170000
H      -47.59180000     -32.18300000     -74.11280000
C      -47.77630000     -32.87750000     -69.42070000
H      -48.10930000     -33.87800000     -69.62380000
H      -48.60520000     -32.34000000     -69.00310000
C      -44.43390000     -29.92080000     -71.55010000
H      -44.18290000     -29.09430000     -72.12670000
H      -44.57870000     -29.47450000     -70.55340000
S      -46.67340000     -32.90200000     -68.01300000
S      -42.78460000     -30.80190000     -71.62980000
C      -45.91370000     -34.56270000     -67.95670000
H      -45.57180000     -34.70460000     -66.94630000
H      -46.79870000     -35.22310000     -68.03500000
C      -42.78120000     -32.18320000     -70.38900000
H      -43.69450000     -32.19300000     -69.88460000
H      -41.97340000     -31.87400000     -69.76450000
C      -42.45740000     -33.56810000     -70.94340000
H      -41.46220000     -33.51410000     -71.38350000
H      -42.36970000     -34.33940000     -70.12260000
C      -44.80550000     -34.81990000     -68.98010000
H      -44.08890000     -35.56210000     -68.59250000
H      -44.35770000     -33.85390000     -69.17760000
C      -45.32060000     -35.24090000     -70.44720000
C      -46.50520000     -35.90680000     -70.69670000
C      -44.70160000     -34.91790000     -71.69170000
H      -47.20400000     -36.18210000     -69.85690000
C      -45.32620000     -35.45870000     -72.80620000
C      -43.47170000     -34.15060000     -71.98120000
C      -43.28730000     -34.07120000     -73.34150000
S      -46.78030000     -36.26600000     -72.37300000
S      -44.43950000     -35.02510000     -74.27910000
H      -42.42430000     -33.67800000     -73.93480000
