40
Properties=species:S:1:pos:R:3 #=T CELL(abcABC):=T 1.889726e+02=T 90.00000=T Traj:=T positionsangstrom=T Step:=T 0=T Bead:=T pbc="F F F"
C      -45.93780000     -30.77760000     -72.04610000
C      -45.12970000     -30.65530000     -70.86360000
C      -45.52490000     -31.23800000     -69.71080000
C      -46.71040000     -32.06700000     -69.64890000
C      -47.54860000     -32.09750000     -70.74110000
C      -47.13280000     -31.50820000     -71.91750000
H      -45.69490000     -30.25290000     -72.97330000
H      -44.97220000     -31.09990000     -68.81080000
H      -48.44580000     -32.71360000     -70.81580000
H      -47.73210000     -31.83890000     -72.74830000
C      -47.05780000     -32.77560000     -68.34620000
H      -47.97160000     -33.24540000     -68.27580000
H      -46.92620000     -32.04960000     -67.53250000
C      -43.78600000     -29.96580000     -70.83070000
H      -43.59750000     -29.16530000     -71.52580000
H      -43.57950000     -29.67660000     -69.79630000
S      -45.69490000     -33.96780000     -67.90820000
S      -42.39950000     -31.18380000     -71.40070000
C      -46.30350000     -35.54060000     -68.69490000
H      -46.36880000     -36.30500000     -67.88220000
H      -47.26320000     -35.54490000     -69.11010000
C      -42.78630000     -32.67110000     -70.38350000
H      -43.64340000     -32.65250000     -69.75870000
H      -42.02050000     -32.85070000     -69.64490000
C      -42.83960000     -33.91760000     -71.25550000
H      -41.88650000     -34.20110000     -71.69770000
H      -43.10500000     -34.67290000     -70.57930000
C      -45.32640000     -35.96350000     -69.89040000
H      -45.23970000     -37.09130000     -69.77760000
H      -44.28880000     -35.54890000     -69.71330000
C      -45.82560000     -35.59300000     -71.21830000
C      -47.01880000     -36.13490000     -71.73580000
C      -45.17000000     -34.75450000     -72.23170000
H      -47.82660000     -36.59260000     -71.22540000
C      -45.82180000     -34.81330000     -73.44400000
C      -43.87670000     -34.02640000     -72.32620000
C      -43.71060000     -33.56510000     -73.60930000
S      -47.35200000     -35.66130000     -73.41700000
S      -45.10550000     -33.84050000     -74.70200000
H      -42.91970000     -32.95390000     -73.97630000
