40
Properties=species:S:1:pos:R:3 #=T CELL(abcABC):=T 1.889726e+02=T 90.00000=T Traj:=T positionsangstrom=T Step:=T 0=T Bead:=T pbc="F F F"
C      -45.74800000     -30.55240000     -71.79300000
C      -44.86550000     -31.07650000     -70.79470000
C      -45.41590000     -32.00540000     -69.87680000
C      -46.78090000     -32.35950000     -69.86110000
C      -47.58900000     -31.99020000     -70.93200000
C      -47.08150000     -31.02350000     -71.80040000
H      -45.37530000     -29.86980000     -72.48270000
H      -44.76100000     -32.20740000     -68.97920000
H      -48.66090000     -32.26890000     -70.98130000
H      -47.79650000     -30.73550000     -72.56460000
C      -47.31820000     -33.33730000     -68.75750000
H      -47.87890000     -34.11250000     -69.30770000
H      -47.94570000     -32.76740000     -68.00110000
C      -43.47750000     -30.51570000     -70.66700000
H      -43.39770000     -29.57160000     -71.24980000
H      -43.27980000     -30.41390000     -69.56480000
S      -46.07820000     -34.26640000     -67.82890000
S      -42.20010000     -31.58280000     -71.49240000
C      -45.88950000     -35.91930000     -68.70690000
H      -45.44490000     -36.50890000     -67.98920000
H      -46.94100000     -36.32720000     -68.83990000
C      -42.38180000     -33.23310000     -70.74240000
H      -43.14690000     -33.18740000     -69.91730000
H      -41.50940000     -33.48510000     -70.14670000
C      -42.59510000     -34.43780000     -71.72630000
H      -41.71150000     -34.56110000     -72.41570000
H      -42.68770000     -35.35860000     -71.12080000
C      -45.05900000     -35.97080000     -70.02810000
H      -44.90090000     -37.07370000     -70.13290000
H      -44.10720000     -35.44220000     -70.05870000
C      -45.76790000     -35.45680000     -71.24500000
C      -47.13350000     -35.64060000     -71.54100000
C      -45.12230000     -34.69040000     -72.30260000
H      -47.93550000     -35.96360000     -70.85450000
C      -46.01460000     -34.20080000     -73.26900000
C      -43.80860000     -34.22730000     -72.62890000
C      -43.73990000     -33.44690000     -73.73940000
S      -47.66590000     -34.68100000     -72.96380000
S      -45.35040000     -33.22380000     -74.47890000
H      -42.85270000     -33.14540000     -74.26900000
