40
Properties=species:S:1:pos:R:3 #=T CELL(abcABC):=T 1.889726e+02=T 90.00000=T Traj:=T positionsangstrom=T Step:=T 0=T Bead:=T pbc="F F F"
C      -45.79420000     -30.90080000     -72.08700000
C      -45.02550000     -30.78000000     -70.92570000
C      -45.48470000     -31.37700000     -69.65660000
C      -46.64860000     -32.17350000     -69.73050000
C      -47.44350000     -32.19300000     -70.89660000
C      -46.99130000     -31.63810000     -72.11410000
H      -45.38790000     -30.61550000     -73.04100000
H      -44.87240000     -31.25200000     -68.72460000
H      -48.22740000     -32.89460000     -71.01790000
H      -47.61880000     -31.73470000     -73.01390000
C      -47.02620000     -32.89350000     -68.43140000
H      -48.01220000     -33.32580000     -68.46550000
H      -47.13710000     -32.17710000     -67.64640000
C      -43.68590000     -30.16360000     -70.92630000
H      -43.67270000     -29.31250000     -71.58770000
H      -43.42790000     -29.70440000     -69.98940000
S      -45.71360000     -34.09460000     -67.84080000
S      -42.30890000     -31.37000000     -71.40730000
C      -46.21140000     -35.64620000     -68.71630000
H      -46.21330000     -36.41600000     -68.03940000
H      -47.32100000     -35.52220000     -69.01300000
C      -42.79260000     -32.84760000     -70.40000000
H      -43.82340000     -32.62760000     -70.13690000
H      -42.19500000     -32.94700000     -69.56940000
C      -42.80000000     -34.18440000     -71.24830000
H      -41.87820000     -34.34250000     -71.76670000
H      -42.95880000     -35.10760000     -70.69290000
C      -45.35140000     -36.03790000     -69.98080000
H      -45.28490000     -37.16210000     -69.88240000
H      -44.34130000     -35.64780000     -69.81130000
C      -45.89960000     -35.51810000     -71.25770000
C      -47.10100000     -35.96730000     -71.77720000
C      -45.22630000     -34.69610000     -72.22260000
H      -47.71110000     -36.63670000     -71.27100000
C      -46.06220000     -34.36750000     -73.33720000
C      -43.89350000     -34.11750000     -72.34660000
C      -43.69860000     -33.43770000     -73.49930000
S      -47.58350000     -35.26770000     -73.30800000
S      -45.10550000     -33.53040000     -74.56910000
H      -42.73890000     -33.02490000     -73.94010000
