40
Properties=species:S:1:pos:R:3 #=T CELL(abcABC):=T 1.889726e+02=T 90.00000=T Traj:=T positionsangstrom=T Step:=T 0=T Bead:=T pbc="F F F"
C      -45.82790000     -31.00820000     -72.13390000
C      -44.95580000     -31.09400000     -71.01300000
C      -45.42260000     -31.61700000     -69.79120000
C      -46.66070000     -32.30050000     -69.77130000
C      -47.52280000     -32.22660000     -70.88820000
C      -47.13750000     -31.57450000     -72.04900000
H      -45.52830000     -30.66600000     -73.16920000
H      -44.80340000     -31.49780000     -68.94580000
H      -48.53990000     -32.62080000     -70.70530000
H      -47.85210000     -31.48430000     -72.87160000
C      -47.07850000     -33.14950000     -68.60790000
H      -47.82070000     -33.92040000     -68.92390000
H      -47.46170000     -32.58900000     -67.77590000
C      -43.60440000     -30.36430000     -71.00710000
H      -43.48380000     -29.57280000     -71.74840000
H      -43.42280000     -29.91850000     -70.02160000
S      -45.71170000     -34.18060000     -67.89050000
S      -42.12880000     -31.45970000     -71.26060000
C      -45.99780000     -35.84970000     -68.68970000
H      -45.51950000     -36.53090000     -67.85170000
H      -47.04420000     -36.00690000     -68.72400000
C      -42.61900000     -33.04280000     -70.39820000
H      -43.55820000     -32.95480000     -69.92200000
H      -41.83990000     -33.31410000     -69.64640000
C      -42.64550000     -34.21520000     -71.38610000
H      -41.75700000     -34.35710000     -72.03760000
H      -42.74910000     -35.16210000     -70.82530000
C      -45.28750000     -36.06580000     -70.05380000
H      -45.30300000     -37.17070000     -70.20590000
H      -44.26630000     -35.73620000     -69.78760000
C      -45.88220000     -35.47830000     -71.32880000
C      -47.22770000     -35.68960000     -71.65420000
C      -45.24920000     -34.60730000     -72.27590000
H      -47.94330000     -36.43140000     -71.16750000
C      -46.12560000     -34.20920000     -73.27150000
C      -43.86260000     -34.14100000     -72.47540000
C      -43.76220000     -33.50010000     -73.60240000
S      -47.76150000     -34.81220000     -73.09880000
S      -45.24220000     -33.28730000     -74.54140000
H      -42.88820000     -32.92970000     -73.84820000
