40
Properties=species:S:1:pos:R:3 #=T CELL(abcABC):=T 1.889726e+02=T 90.00000=T Traj:=T positionsangstrom=T Step:=T 0=T Bead:=T pbc="F F F"
C      -48.78830000     -32.83120000     -70.21850000
C      -48.14270000     -31.55830000     -70.05930000
C      -47.00210000     -31.53030000     -69.26420000
C      -46.65180000     -32.59930000     -68.44230000
C      -47.45890000     -33.69930000     -68.47230000
C      -48.50340000     -33.86000000     -69.35260000
H      -49.53630000     -32.79650000     -71.05940000
H      -46.36100000     -30.65020000     -69.38950000
H      -47.22250000     -34.51360000     -67.74230000
H      -48.89970000     -34.83830000     -69.43990000
C      -45.54060000     -32.46970000     -67.38260000
H      -45.30150000     -33.43620000     -66.71020000
H      -45.71610000     -31.68960000     -66.59500000
C      -48.55760000     -30.42470000     -70.93910000
H      -49.50790000     -30.61850000     -71.41850000
H      -48.59600000     -29.47180000     -70.40880000
S      -43.90130000     -32.02390000     -68.28450000
S      -47.27020000     -30.22770000     -72.30900000
C      -43.84810000     -33.48710000     -69.51930000
H      -43.43570000     -34.39260000     -69.08090000
H      -44.87320000     -33.57680000     -69.88300000
C      -46.84880000     -31.98590000     -72.83000000
H      -46.80860000     -31.83890000     -73.93960000
H      -47.63490000     -32.70860000     -72.68380000
C      -45.55050000     -32.58070000     -72.35150000
H      -44.70270000     -31.80960000     -72.41530000
H      -45.65970000     -32.85170000     -71.31070000
C      -42.77590000     -33.27110000     -70.71100000
H      -41.82760000     -33.22200000     -70.27830000
H      -43.01410000     -32.29350000     -71.22720000
C      -42.77360000     -34.38910000     -71.68520000
C      -41.85500000     -35.40930000     -71.72650000
C      -43.87690000     -34.51390000     -72.63250000
H      -40.91290000     -35.44320000     -71.16170000
C      -43.66530000     -35.63350000     -73.42450000
C      -45.06900000     -33.82540000     -73.04730000
C      -45.64290000     -34.45780000     -74.06760000
S      -42.20760000     -36.50560000     -73.09450000
S      -44.87070000     -35.97970000     -74.67340000
H      -46.60230000     -34.14020000     -74.38460000
