40
Properties=species:S:1:pos:R:3 #=T CELL(abcABC):=T 1.889726e+02=T 90.00000=T Traj:=T positionsangstrom=T Step:=T 0=T Bead:=T pbc="F F F"
C      -45.39660000     -30.59230000     -71.41660000
C      -44.64260000     -31.19490000     -70.42970000
C      -45.29170000     -32.09840000     -69.57390000
C      -46.64800000     -32.44320000     -69.74100000
C      -47.37400000     -31.85240000     -70.77190000
C      -46.76690000     -30.90970000     -71.59700000
H      -44.96140000     -29.81380000     -72.14810000
H      -44.71450000     -32.37160000     -68.70690000
H      -48.37510000     -32.17100000     -70.88060000
H      -47.31460000     -30.28540000     -72.34260000
C      -47.42230000     -33.43080000     -68.86520000
H      -48.09000000     -34.05680000     -69.51150000
H      -48.12500000     -32.92650000     -68.08550000
C      -43.17790000     -30.88840000     -70.31240000
H      -43.07660000     -29.79030000     -70.40300000
H      -42.62930000     -31.17810000     -69.36050000
S      -46.43400000     -34.52040000     -67.80280000
S      -42.19320000     -31.61980000     -71.68730000
C      -45.93770000     -36.03550000     -68.82210000
H      -45.33610000     -36.52020000     -68.01290000
H      -46.80260000     -36.56300000     -69.03520000
C      -41.99350000     -33.46800000     -71.11650000
H      -42.61130000     -33.55200000     -70.18920000
H      -40.93010000     -33.74660000     -70.90510000
C      -42.54040000     -34.46100000     -72.09740000
H      -41.91820000     -34.61930000     -72.94900000
H      -42.59480000     -35.46490000     -71.66650000
C      -45.09750000     -35.68470000     -70.00900000
H      -44.41590000     -36.48300000     -70.31340000
H      -44.30560000     -34.88940000     -69.83160000
C      -45.85340000     -35.14310000     -71.21420000
C      -47.20550000     -35.38930000     -71.43660000
C      -45.27060000     -34.40030000     -72.31860000
H      -47.65640000     -36.03430000     -70.78400000
C      -46.14140000     -33.98150000     -73.27140000
C      -43.88860000     -34.10030000     -72.69440000
C      -43.81400000     -33.51310000     -73.92490000
S      -47.79680000     -34.57440000     -72.88880000
S      -45.47580000     -33.21220000     -74.66010000
H      -43.02050000     -32.96800000     -74.52790000
