40
Properties=species:S:1:pos:R:3 #=T CELL(abcABC):=T 1.889726e+02=T 90.00000=T Traj:=T positionsangstrom=T Step:=T 0=T Bead:=T pbc="F F F"
C      -48.75250000     -32.78520000     -71.32920000
C      -48.22950000     -33.07670000     -72.60440000
C      -47.37000000     -32.18250000     -73.23670000
C      -47.10720000     -30.93090000     -72.63610000
C      -47.67900000     -30.60740000     -71.37730000
C      -48.52030000     -31.54040000     -70.68620000
H      -49.23130000     -33.56480000     -70.76230000
H      -46.90860000     -32.42440000     -74.15790000
H      -47.44840000     -29.75260000     -70.81050000
H      -49.01320000     -31.40380000     -69.69560000
C      -46.29300000     -29.82780000     -73.20700000
H      -46.32760000     -29.10870000     -72.43140000
H      -46.69510000     -29.47720000     -74.18170000
C      -48.66720000     -34.39990000     -73.24170000
H      -49.22830000     -34.92720000     -72.42870000
H      -49.26260000     -34.25780000     -74.13580000
S      -44.49230000     -30.19380000     -73.52870000
S      -47.20740000     -35.39110000     -73.66360000
C      -44.17440000     -30.91960000     -71.82370000
H      -43.20720000     -30.53520000     -71.51110000
H      -44.85110000     -30.42970000     -71.14020000
C      -46.28420000     -35.51860000     -72.05530000
H      -46.73950000     -36.20840000     -71.35980000
H      -46.48090000     -34.53290000     -71.62570000
C      -44.79140000     -35.75340000     -72.22630000
H      -44.62400000     -36.84290000     -72.64200000
H      -44.39120000     -35.04710000     -73.01740000
C      -44.20430000     -32.43560000     -71.74600000
H      -43.53830000     -32.90060000     -72.52020000
H      -45.19830000     -32.78920000     -71.99430000
C      -43.69960000     -33.01030000     -70.46590000
C      -43.12770000     -32.29270000     -69.43460000
C      -43.80080000     -34.42590000     -70.12060000
H      -43.19120000     -31.19880000     -69.54470000
C      -43.18670000     -34.68580000     -68.86930000
C      -44.09120000     -35.63350000     -70.91930000
C      -43.85890000     -36.78730000     -70.15190000
S      -42.68260000     -33.26340000     -68.05260000
S      -43.27940000     -36.43940000     -68.57050000
H      -43.65810000     -37.77870000     -70.57180000
