40
Properties=species:S:1:pos:R:3 #=T CELL(abcABC):=T 1.889726e+02=T 90.00000=T Traj:=T positionsangstrom=T Step:=T 0=T Bead:=T pbc="F F F"
C      -44.68520000     -31.15780000     -71.13060000
C      -43.77320000     -31.94450000     -70.40650000
C      -44.24990000     -32.64160000     -69.32900000
C      -45.60650000     -32.48330000     -68.83590000
C      -46.40020000     -31.56780000     -69.48590000
C      -45.96380000     -30.87050000     -70.63480000
H      -44.35830000     -30.74520000     -72.10720000
H      -43.51220000     -33.18140000     -68.61760000
H      -47.37440000     -31.40340000     -69.09160000
H      -46.56660000     -30.21290000     -71.19030000
C      -46.10270000     -33.22970000     -67.61880000
H      -47.18750000     -33.15160000     -67.62180000
H      -45.67520000     -32.86770000     -66.69270000
C      -42.33290000     -32.06620000     -70.79270000
H      -41.89980000     -31.11540000     -71.11580000
H      -41.69590000     -32.50500000     -69.97120000
S      -45.50230000     -34.99030000     -67.53210000
S      -42.05980000     -32.91020000     -72.39690000
C      -46.40250000     -35.72980000     -69.01210000
H      -46.56170000     -36.82500000     -68.83290000
H      -47.35300000     -35.31400000     -69.07960000
C      -42.61580000     -34.63990000     -72.10370000
H      -42.98670000     -34.74930000     -71.06020000
H      -41.68530000     -35.27530000     -72.21690000
C      -43.57380000     -35.23250000     -73.11990000
H      -43.16280000     -35.35820000     -74.09970000
H      -44.00270000     -36.21800000     -72.93610000
C      -45.76750000     -35.57150000     -70.45160000
H      -45.70680000     -36.58610000     -70.96450000
H      -44.67630000     -35.14190000     -70.31190000
C      -46.44580000     -34.54580000     -71.36590000
C      -47.67300000     -33.96180000     -71.07040000
C      -45.97870000     -34.10530000     -72.67810000
H      -48.32920000     -34.06340000     -70.18110000
C      -46.85370000     -33.21690000     -73.28210000
C      -44.71590000     -34.24480000     -73.41560000
C      -44.78550000     -33.56800000     -74.61250000
S      -48.25570000     -32.85260000     -72.36080000
S      -46.28980000     -32.57460000     -74.79350000
H      -43.92510000     -33.58320000     -75.33250000
