40
Properties=species:S:1:pos:R:3 #=T CELL(abcABC):=T 1.889726e+02=T 90.00000=T Traj:=T positionsangstrom=T Step:=T 0=T Bead:=T pbc="F F F"
C      -44.48910000     -31.08930000     -71.03520000
C      -43.57070000     -31.92220000     -70.33940000
C      -44.10180000     -32.61250000     -69.21770000
C      -45.45020000     -32.50140000     -68.86380000
C      -46.28040000     -31.58450000     -69.52180000
C      -45.76540000     -30.91150000     -70.63750000
H      -44.06980000     -30.50670000     -71.94670000
H      -43.50430000     -33.36920000     -68.73710000
H      -47.28840000     -31.37600000     -69.11090000
H      -46.29900000     -30.17420000     -71.19670000
C      -46.02960000     -33.23050000     -67.67360000
H      -47.10580000     -32.94460000     -67.67430000
H      -45.64090000     -32.99430000     -66.68680000
C      -42.16680000     -32.07010000     -70.85690000
H      -41.62230000     -31.21750000     -70.97840000
H      -41.62260000     -32.66750000     -70.08010000
S      -45.54590000     -35.01270000     -67.69630000
S      -42.06380000     -32.92060000     -72.57680000
C      -46.47030000     -35.83910000     -69.13670000
H      -46.27080000     -36.93470000     -68.83290000
H      -47.50510000     -35.59340000     -69.07270000
C      -42.67030000     -34.57310000     -72.12190000
H      -43.25270000     -34.34640000     -71.23680000
H      -41.82880000     -35.19770000     -71.90660000
C      -43.72420000     -35.21140000     -73.12500000
H      -43.12440000     -35.60040000     -74.02000000
H      -44.01890000     -36.07960000     -72.54350000
C      -45.86760000     -35.63410000     -70.47050000
H      -45.75790000     -36.54130000     -71.03250000
H      -44.80050000     -35.35300000     -70.53080000
C      -46.55440000     -34.56390000     -71.31670000
C      -47.76920000     -33.91410000     -71.02730000
C      -46.01990000     -34.04610000     -72.53600000
H      -48.25820000     -33.94590000     -70.10690000
C      -46.88670000     -33.10530000     -73.11810000
C      -44.85080000     -34.30470000     -73.38700000
C      -44.89210000     -33.50950000     -74.50000000
S      -48.33710000     -32.83060000     -72.25380000
S      -46.31290000     -32.61350000     -74.74170000
H      -44.21910000     -33.71660000     -75.32700000
