40
Properties=species:S:1:pos:R:3 #=T CELL(abcABC):=T 1.889726e+02=T 90.00000=T Traj:=T positionsangstrom=T Step:=T 0=T Bead:=T pbc="F F F"
C      -44.73950000     -31.08110000     -71.09740000
C      -43.84610000     -31.86380000     -70.44070000
C      -44.30400000     -32.49540000     -69.26010000
C      -45.62250000     -32.43310000     -68.82170000
C      -46.55840000     -31.73150000     -69.56970000
C      -46.13350000     -30.96760000     -70.65180000
H      -44.48320000     -30.45300000     -71.89210000
H      -43.64710000     -33.24360000     -68.74710000
H      -47.64110000     -31.72730000     -69.34120000
H      -46.86180000     -30.32170000     -71.18610000
C      -46.12500000     -33.21050000     -67.58530000
H      -47.23280000     -33.20890000     -67.41770000
H      -45.70960000     -32.69160000     -66.66960000
C      -42.38790000     -32.07510000     -70.78130000
H      -41.96930000     -31.03830000     -70.68840000
H      -41.98310000     -32.64680000     -70.00940000
S      -45.54000000     -35.00580000     -67.58450000
S      -42.04410000     -32.85510000     -72.41040000
C      -46.38220000     -35.68710000     -69.02840000
H      -46.39950000     -36.74950000     -68.80340000
H      -47.45950000     -35.33390000     -68.97410000
C      -42.49350000     -34.62760000     -71.96610000
H      -42.97460000     -34.65450000     -71.00870000
H      -41.61580000     -35.23900000     -71.80230000
C      -43.55630000     -35.17620000     -73.01550000
H      -42.99740000     -35.43430000     -73.86770000
H      -43.89800000     -36.09270000     -72.49050000
C      -45.70120000     -35.35790000     -70.37680000
H      -45.49320000     -36.32060000     -70.87500000
H      -44.83190000     -34.79440000     -70.11710000
C      -46.44910000     -34.50510000     -71.33620000
C      -47.74670000     -34.04990000     -71.18670000
C      -45.86820000     -33.97650000     -72.56030000
H      -48.58410000     -34.41380000     -70.54880000
C      -46.73950000     -33.15070000     -73.28210000
C      -44.69780000     -34.27530000     -73.34370000
C      -44.72910000     -33.70700000     -74.56540000
S      -48.30020000     -32.95220000     -72.49430000
S      -46.13310000     -32.67320000     -74.82590000
H      -43.90940000     -33.73180000     -75.29260000
