40
Properties=species:S:1:pos:R:3 #=T CELL(abcABC):=T 1.889726e+02=T 90.00000=T Traj:=T positionsangstrom=T Step:=T 0=T Bead:=T pbc="F F F"
C      -44.74590000     -30.81810000     -71.06060000
C      -43.77360000     -31.59740000     -70.33820000
C      -44.21810000     -32.29960000     -69.21170000
C      -45.57230000     -32.47070000     -68.85000000
C      -46.44670000     -31.74300000     -69.69830000
C      -46.08840000     -30.93260000     -70.75660000
H      -44.43220000     -30.38360000     -72.08370000
H      -43.53940000     -32.90120000     -68.65920000
H      -47.47600000     -31.93640000     -69.57230000
H      -46.85740000     -30.42500000     -71.41820000
C      -46.01630000     -33.24150000     -67.63390000
H      -47.15600000     -33.19380000     -67.61700000
H      -45.47210000     -32.82650000     -66.71600000
C      -42.33980000     -31.69040000     -70.73650000
H      -41.95590000     -30.74260000     -70.96190000
H      -41.66800000     -32.23940000     -70.02430000
S      -45.70010000     -35.09560000     -67.58450000
S      -42.04500000     -32.61800000     -72.31570000
C      -46.72620000     -35.62940000     -69.03150000
H      -47.27930000     -36.61890000     -68.86860000
H      -47.53050000     -34.90270000     -69.07840000
C      -42.72580000     -34.21990000     -71.70610000
H      -43.48120000     -34.04300000     -70.92590000
H      -41.91920000     -34.70120000     -71.20260000
C      -43.39210000     -35.14500000     -72.80870000
H      -42.67910000     -35.18330000     -73.66280000
H      -43.60640000     -36.12860000     -72.47800000
C      -45.90910000     -35.64190000     -70.38850000
H      -45.89620000     -36.68100000     -70.76260000
H      -44.85080000     -35.28660000     -70.22060000
C      -46.53790000     -34.73910000     -71.44080000
C      -47.83920000     -34.22650000     -71.34700000
C      -45.86020000     -34.26860000     -72.62810000
H      -48.50660000     -34.34890000     -70.56660000
C      -46.66340000     -33.33450000     -73.29390000
C      -44.59230000     -34.43260000     -73.31220000
C      -44.54180000     -33.68230000     -74.46350000
S      -48.29310000     -33.18140000     -72.73630000
S      -46.00120000     -32.75030000     -74.73040000
H      -43.77530000     -33.57370000     -75.20750000
