40
Properties=species:S:1:pos:R:3 #=T CELL(abcABC):=T 1.889726e+02=T 90.00000=T Traj:=T positionsangstrom=T Step:=T 0=T Bead:=T pbc="F F F"
C      -48.76290000     -32.68120000     -71.52520000
C      -48.22850000     -32.97990000     -72.78270000
C      -47.38050000     -32.00710000     -73.33230000
C      -47.16380000     -30.76780000     -72.73690000
C      -47.67710000     -30.47000000     -71.46560000
C      -48.44240000     -31.53110000     -70.83060000
H      -49.44690000     -33.38590000     -71.06750000
H      -47.05990000     -32.19320000     -74.38040000
H      -47.56830000     -29.47960000     -71.05230000
H      -48.92410000     -31.33450000     -69.86980000
C      -46.24990000     -29.85690000     -73.53080000
H      -46.38490000     -28.76070000     -73.25250000
H      -46.60570000     -29.76860000     -74.54870000
C      -48.57590000     -34.24740000     -73.51740000
H      -49.58660000     -34.65700000     -73.06830000
H      -48.80260000     -34.05450000     -74.53470000
S      -44.51610000     -30.44300000     -73.51760000
S      -47.30110000     -35.61110000     -73.56660000
C      -44.06080000     -30.94660000     -71.83540000
H      -43.03100000     -30.62020000     -71.64500000
H      -44.80160000     -30.51750000     -71.05300000
C      -46.47270000     -35.47530000     -71.94060000
H      -46.85190000     -36.17620000     -71.19780000
H      -46.57420000     -34.45060000     -71.52510000
C      -44.93710000     -35.72140000     -72.06950000
H      -44.76190000     -36.66930000     -72.53890000
H      -44.48450000     -34.95920000     -72.57830000
C      -44.20490000     -32.41790000     -71.70800000
H      -43.65650000     -32.94850000     -72.50670000
H      -45.27600000     -32.69930000     -71.86510000
C      -43.73070000     -33.00570000     -70.39450000
C      -43.16550000     -32.28110000     -69.35850000
C      -43.73510000     -34.40030000     -70.11420000
H      -42.98540000     -31.16410000     -69.26880000
C      -43.00800000     -34.67130000     -68.99060000
C      -44.28030000     -35.64580000     -70.68740000
C      -44.10030000     -36.76690000     -69.87250000
S      -42.61080000     -33.27360000     -67.99050000
S      -43.07140000     -36.35950000     -68.48500000
H      -44.32130000     -37.83380000     -70.02330000
