40
Properties=species:S:1:pos:R:3 #=T CELL(abcABC):=T 1.889726e+02=T 90.00000=T Traj:=T positionsangstrom=T Step:=T 0=T Bead:=T pbc="F F F"
C      -44.14820000     -31.00480000     -71.09810000
C      -43.28920000     -31.98670000     -70.55560000
C      -43.71380000     -32.70360000     -69.45140000
C      -45.02390000     -32.52600000     -68.87160000
C      -45.86780000     -31.50600000     -69.41770000
C      -45.42060000     -30.75260000     -70.52210000
H      -43.87340000     -30.53660000     -71.94130000
H      -43.15020000     -33.62320000     -69.07400000
H      -46.82070000     -31.26230000     -69.00260000
H      -45.95450000     -29.94620000     -70.84670000
C      -45.45740000     -33.45410000     -67.77840000
H      -46.52650000     -33.30920000     -67.43370000
H      -44.85280000     -33.15740000     -66.92150000
C      -41.88790000     -32.11320000     -71.17830000
H      -41.52220000     -31.23390000     -71.64760000
H      -41.12570000     -32.42000000     -70.45670000
S      -45.12510000     -35.23640000     -68.09270000
S      -41.83450000     -33.35940000     -72.55610000
C      -46.58080000     -35.68570000     -69.08960000
H      -47.00610000     -36.71710000     -68.74590000
H      -47.47080000     -35.06170000     -69.06360000
C      -42.94930000     -34.76150000     -72.19340000
H      -43.51010000     -34.53510000     -71.25960000
H      -42.34390000     -35.68770000     -71.91580000
C      -44.07550000     -35.16590000     -73.21650000
H      -43.69590000     -35.23340000     -74.27800000
H      -44.53370000     -36.11850000     -72.98310000
C      -46.26540000     -35.77930000     -70.62670000
H      -46.62400000     -36.74210000     -70.97090000
H      -45.20000000     -35.86280000     -70.79250000
C      -46.96590000     -34.71390000     -71.40890000
C      -48.20750000     -34.22820000     -71.11240000
C      -46.33600000     -33.95980000     -72.45540000
H      -48.97200000     -34.69180000     -70.42490000
C      -47.16880000     -32.87220000     -72.92450000
C      -45.14480000     -34.04520000     -73.24320000
C      -45.06190000     -33.14410000     -74.29200000
S      -48.67940000     -32.79150000     -72.02870000
S      -46.57220000     -32.04990000     -74.32280000
H      -44.49260000     -33.14240000     -75.23670000
