40
Properties=species:S:1:pos:R:3 #=T CELL(abcABC):=T 1.889726e+02=T 90.00000=T Traj:=T positionsangstrom=T Step:=T 0=T Bead:=T pbc="F F F"
C      -44.00270000     -30.95760000     -71.25840000
C      -43.24780000     -32.04550000     -70.86320000
C      -43.65290000     -32.80020000     -69.80170000
C      -44.85800000     -32.54750000     -69.08030000
C      -45.58050000     -31.40210000     -69.45610000
C      -45.16510000     -30.63160000     -70.53560000
H      -43.72640000     -30.41420000     -72.20100000
H      -43.10280000     -33.66210000     -69.39790000
H      -46.53300000     -31.22770000     -68.95380000
H      -45.89940000     -29.87500000     -70.83210000
C      -45.26800000     -33.46790000     -67.95020000
H      -46.31770000     -33.55460000     -67.97660000
H      -45.00890000     -33.11150000     -66.94720000
C      -42.03160000     -32.43550000     -71.68470000
H      -41.50280000     -31.51290000     -71.98350000
H      -41.27200000     -33.00920000     -71.16360000
S      -44.65380000     -35.22740000     -68.00270000
S      -42.35660000     -33.16060000     -73.31000000
C      -45.94160000     -36.02320000     -69.07420000
H      -45.93660000     -37.06180000     -68.83910000
H      -46.86640000     -35.56260000     -68.63500000
C      -42.92210000     -34.83640000     -72.89590000
H      -42.69720000     -34.96980000     -71.84230000
H      -42.28100000     -35.59990000     -73.38610000
C      -44.35040000     -35.00700000     -73.44560000
H      -44.21830000     -34.89880000     -74.49470000
H      -44.86810000     -35.92900000     -73.19080000
C      -45.84600000     -35.78160000     -70.61930000
H      -46.25540000     -36.71530000     -71.04200000
H      -44.78380000     -35.56680000     -70.84350000
C      -46.71260000     -34.70900000     -71.11420000
C      -47.85320000     -34.28510000     -70.45600000
C      -46.42440000     -33.88740000     -72.23730000
H      -48.14990000     -34.53730000     -69.43120000
C      -47.40050000     -32.90930000     -72.49900000
C      -45.43150000     -33.91080000     -73.23900000
C      -45.63340000     -32.92890000     -74.17160000
S      -48.62450000     -32.92390000     -71.20450000
S      -47.14350000     -32.04240000     -74.02730000
H      -45.01390000     -32.76170000     -75.05800000
