40
Properties=species:S:1:pos:R:3 #=T CELL(abcABC):=T 1.889726e+02=T 90.00000=T Traj:=T positionsangstrom=T Step:=T 0=T Bead:=T pbc="F F F"
C      -44.13060000     -30.93710000     -71.20220000
C      -43.21860000     -31.93670000     -70.82150000
C      -43.52750000     -32.75620000     -69.75300000
C      -44.80380000     -32.63560000     -69.19030000
C      -45.74460000     -31.71850000     -69.62000000
C      -45.35700000     -30.81370000     -70.60450000
H      -43.82060000     -30.17420000     -71.97790000
H      -42.95210000     -33.58960000     -69.44790000
H      -46.73000000     -31.66430000     -69.10880000
H      -46.04880000     -29.98010000     -70.92770000
C      -45.38010000     -33.60020000     -68.09450000
H      -46.44420000     -33.55470000     -68.15900000
H      -45.17600000     -33.40040000     -67.02550000
C      -41.82570000     -32.18240000     -71.37930000
H      -41.40470000     -31.23890000     -71.80740000
H      -41.14490000     -32.59820000     -70.69790000
S      -45.02580000     -35.39110000     -68.09570000
S      -41.94800000     -33.34680000     -72.89700000
C      -46.49790000     -36.00820000     -69.06590000
H      -46.53990000     -37.06100000     -68.95160000
H      -47.43930000     -35.44450000     -68.72150000
C      -42.96680000     -34.79660000     -72.21480000
H      -43.33580000     -34.50470000     -71.18300000
H      -42.38020000     -35.74860000     -72.21750000
C      -44.11340000     -35.11560000     -73.03550000
H      -43.81670000     -35.29480000     -74.06260000
H      -44.55650000     -36.14720000     -72.73870000
C      -46.30980000     -35.84760000     -70.68080000
H      -46.60780000     -36.79700000     -71.11040000
H      -45.25110000     -35.69300000     -70.69730000
C      -47.10240000     -34.66910000     -71.30270000
C      -48.39320000     -34.29710000     -71.07310000
C      -46.45390000     -33.86020000     -72.30490000
H      -49.10200000     -34.78210000     -70.50740000
C      -47.23070000     -32.78470000     -72.68120000
C      -45.23040000     -33.94380000     -73.11520000
C      -45.11090000     -32.81610000     -73.85990000
S      -48.86240000     -32.89040000     -72.01800000
S      -46.45880000     -31.66110000     -73.75350000
H      -44.24950000     -32.54210000     -74.44950000
