40
Properties=species:S:1:pos:R:3 #=T CELL(abcABC):=T 1.889726e+02=T 90.00000=T Traj:=T positionsangstrom=T Step:=T 0=T Bead:=T pbc="F F F"
C      -49.17700000     -32.01840000     -71.07600000
C      -48.10140000     -31.21800000     -71.27220000
C      -47.24430000     -30.89030000     -70.19420000
C      -47.32510000     -31.66730000     -69.05930000
C      -48.49920000     -32.48150000     -68.80660000
C      -49.39740000     -32.68700000     -69.83780000
H      -50.05920000     -32.11550000     -71.71880000
H      -46.30390000     -30.26330000     -70.14530000
H      -48.49260000     -33.09010000     -67.86540000
H      -50.32690000     -33.20690000     -69.70110000
C      -46.26900000     -31.45970000     -67.95140000
H      -46.39650000     -32.15150000     -67.10840000
H      -46.41280000     -30.41580000     -67.66230000
C      -47.92600000     -30.34150000     -72.52400000
H      -48.73500000     -30.51840000     -73.24820000
H      -48.01320000     -29.24210000     -72.38150000
S      -44.45300000     -31.60200000     -68.55540000
S      -46.26580000     -30.34560000     -73.28770000
C      -44.32940000     -33.32140000     -69.05920000
H      -44.19970000     -33.92550000     -68.11670000
H      -45.17900000     -33.51500000     -69.80110000
C      -45.73640000     -32.09110000     -73.72670000
H      -45.16110000     -32.09630000     -74.66900000
H      -46.60260000     -32.66910000     -74.00580000
C      -44.91520000     -32.76110000     -72.66470000
H      -43.98160000     -32.17440000     -72.51760000
H      -45.43520000     -32.71460000     -71.64050000
C      -43.03590000     -33.56660000     -69.86860000
H      -42.22720000     -33.83550000     -69.14240000
H      -42.74090000     -32.67480000     -70.45010000
C      -43.03830000     -34.75640000     -70.77180000
C      -42.45300000     -35.97120000     -70.31860000
C      -43.64370000     -34.92180000     -72.07840000
H      -41.82680000     -36.05860000     -69.48030000
C      -43.45630000     -36.25720000     -72.47430000
C      -44.60000000     -34.27050000     -72.95920000
C      -44.96500000     -35.08350000     -74.07190000
S      -42.64380000     -37.33430000     -71.39620000
S      -44.27810000     -36.64100000     -73.97740000
H      -45.29320000     -34.80700000     -75.04690000
