40
Properties=species:S:1:pos:R:3 #=T CELL(abcABC):=T 1.889726e+02=T 90.00000=T Traj:=T positionsangstrom=T Step:=T 0=T Bead:=T pbc="F F F"
C      -48.23750000     -33.65020000     -68.60540000
C      -47.01850000     -34.03270000     -69.25840000
C      -46.19950000     -33.09440000     -69.98440000
C      -46.65540000     -31.72540000     -70.01080000
C      -47.83870000     -31.40070000     -69.34470000
C      -48.66920000     -32.28590000     -68.69310000
H      -48.87120000     -34.38580000     -68.22370000
H      -45.30790000     -33.38770000     -70.35940000
H      -48.28860000     -30.38860000     -69.32910000
H      -49.58760000     -31.82320000     -68.27590000
C      -45.88390000     -30.59570000     -70.66810000
H      -44.79770000     -30.93650000     -70.69450000
H      -46.10550000     -29.71670000     -70.09980000
C      -46.69730000     -35.49600000     -69.39620000
H      -45.64860000     -35.54180000     -69.48140000
H      -47.11970000     -36.10350000     -68.61340000
S      -46.33180000     -30.23590000     -72.41850000
S      -47.35110000     -36.29410000     -70.90500000
C      -46.62290000     -31.84220000     -73.27160000
H      -46.98620000     -32.40170000     -72.42030000
H      -47.49270000     -31.66300000     -73.92780000
C      -46.73930000     -35.46550000     -72.46090000
H      -46.73560000     -34.34570000     -72.17580000
H      -47.48430000     -35.70490000     -73.28830000
C      -45.35200000     -35.90460000     -72.87900000
H      -45.28520000     -37.03750000     -72.83800000
H      -45.30270000     -35.66460000     -73.95500000
C      -45.41700000     -32.48670000     -73.97980000
H      -45.08830000     -31.85480000     -74.80810000
H      -45.64590000     -33.48860000     -74.39970000
C      -44.27160000     -32.72300000     -73.03380000
C      -43.39920000     -31.66100000     -72.86590000
C      -43.79720000     -33.90580000     -72.29120000
H      -43.67870000     -30.70420000     -73.28970000
C      -42.61880000     -33.61730000     -71.57610000
C      -44.18240000     -35.27500000     -72.20870000
C      -43.38720000     -35.87950000     -71.28770000
S      -42.17810000     -31.91410000     -71.66230000
S      -42.02950000     -34.98070000     -70.67400000
H      -43.41510000     -36.91880000     -71.09900000
