40
Properties=species:S:1:pos:R:3 #=T CELL(abcABC):=T 1.889726e+02=T 90.00000=T Traj:=T positionsangstrom=T Step:=T 0=T Bead:=T pbc="F F F"
C      -48.15570000     -32.33310000     -72.39310000
C      -47.44300000     -31.18900000     -72.04380000
C      -47.33240000     -30.88680000     -70.65320000
C      -47.73130000     -31.79810000     -69.71410000
C      -48.62480000     -32.84790000     -70.08250000
C      -48.80570000     -33.15680000     -71.41400000
H      -48.16300000     -32.66110000     -73.46990000
H      -46.72130000     -30.07800000     -70.34060000
H      -49.02110000     -33.58100000     -69.32990000
H      -49.45740000     -33.88770000     -71.70250000
C      -47.30010000     -31.62950000     -68.30950000
H      -47.83580000     -32.32390000     -67.65120000
H      -47.68710000     -30.68920000     -67.81890000
C      -47.07600000     -30.11150000     -73.05050000
H      -47.57900000     -30.06540000     -74.01570000
H      -47.30140000     -29.10110000     -72.65620000
S      -45.44000000     -31.75460000     -67.97520000
S      -45.24720000     -30.07670000     -73.39690000
C      -45.12490000     -33.18200000     -69.10710000
H      -45.68100000     -33.98920000     -68.68280000
H      -45.54430000     -32.78390000     -69.95970000
C      -44.82150000     -31.80450000     -73.85540000
H      -44.14700000     -31.80530000     -74.68470000
H      -45.77030000     -32.36200000     -74.20490000
C      -44.37860000     -32.66180000     -72.55690000
H      -43.34140000     -32.27300000     -72.25910000
H      -45.13760000     -32.41830000     -71.78520000
C      -43.64440000     -33.54820000     -69.41730000
H      -42.99620000     -33.65690000     -68.55590000
H      -43.25690000     -32.66660000     -70.01360000
C      -43.57270000     -34.83360000     -70.15450000
C      -43.17780000     -35.99530000     -69.56090000
C      -43.89990000     -35.02520000     -71.53950000
H      -42.90650000     -36.14220000     -68.45230000
C      -43.77510000     -36.35450000     -71.95340000
C      -44.27140000     -34.14430000     -72.64870000
C      -44.11360000     -34.79940000     -73.84370000
S      -43.28090000     -37.34420000     -70.65490000
S      -44.01270000     -36.56800000     -73.66860000
H      -44.31070000     -34.30130000     -74.81340000
