40
Properties=species:S:1:pos:R:3 #=T CELL(abcABC):=T 1.889726e+02=T 90.00000=T Traj:=T positionsangstrom=T Step:=T 0=T Bead:=T pbc="F F F"
C      -44.63340000     -30.80470000     -71.96400000
C      -43.49900000     -31.57740000     -71.76390000
C      -43.25050000     -32.12360000     -70.51710000
C      -44.06460000     -31.92830000     -69.38220000
C      -45.14380000     -31.04090000     -69.61600000
C      -45.45130000     -30.48080000     -70.79660000
H      -44.97970000     -30.39440000     -72.89770000
H      -42.33720000     -32.72410000     -70.44480000
H      -45.81650000     -30.65100000     -68.79540000
H      -46.34090000     -29.82830000     -70.84700000
C      -43.84070000     -32.59960000     -68.01920000
H      -44.71850000     -32.64230000     -67.46500000
H      -43.13480000     -32.04930000     -67.37900000
C      -42.63170000     -31.85890000     -72.94100000
H      -42.54420000     -31.08900000     -73.66700000
H      -41.70390000     -32.34510000     -72.65950000
S      -43.26430000     -34.36950000     -68.07030000
S      -43.34130000     -33.12480000     -74.08730000
C      -44.90550000     -35.25890000     -68.41600000
H      -45.02210000     -36.19400000     -67.88170000
H      -45.56980000     -34.50120000     -68.00640000
C      -43.37560000     -34.57280000     -72.94760000
H      -43.41100000     -34.16760000     -71.92980000
H      -42.41730000     -35.09510000     -73.06070000
C      -44.60270000     -35.44190000     -73.20800000
H      -44.51950000     -35.94450000     -74.20450000
H      -44.49990000     -36.22870000     -72.39770000
C      -45.14870000     -35.43870000     -69.90950000
H      -45.29110000     -36.52290000     -70.06830000
H      -44.27850000     -35.21380000     -70.50560000
C      -46.38610000     -34.77750000     -70.40020000
C      -47.46430000     -34.39100000     -69.58300000
C      -46.67570000     -34.45080000     -71.82740000
H      -47.45810000     -34.52250000     -68.53520000
C      -47.85230000     -33.74660000     -72.05370000
C      -45.91380000     -34.66900000     -73.08210000
C      -46.56430000     -34.12990000     -74.15450000
S      -48.67720000     -33.28370000     -70.61410000
S      -47.96950000     -33.23400000     -73.70790000
H      -46.25680000     -34.13100000     -75.15750000
