40
Properties=species:S:1:pos:R:3 #=T CELL(abcABC):=T 1.889726e+02=T 90.00000=T Traj:=T positionsangstrom=T Step:=T 0=T Bead:=T pbc="F F F"
C      -48.45460000     -33.66320000     -68.82040000
C      -47.26790000     -34.03560000     -69.45150000
C      -46.35340000     -33.12770000     -69.92210000
C      -46.69890000     -31.76740000     -69.91880000
C      -47.84910000     -31.32440000     -69.31070000
C      -48.69360000     -32.28330000     -68.72220000
H      -48.99750000     -34.37910000     -68.23570000
H      -45.51100000     -33.48200000     -70.41020000
H      -48.28040000     -30.27860000     -69.30030000
H      -49.63700000     -31.94640000     -68.26240000
C      -45.71030000     -30.77490000     -70.48140000
H      -44.64190000     -31.15210000     -70.50280000
H      -45.67170000     -29.85810000     -69.98810000
C      -46.83930000     -35.44810000     -69.56420000
H      -45.68410000     -35.62640000     -69.48860000
H      -47.23960000     -35.96920000     -68.63450000
S      -46.24760000     -30.23560000     -72.21750000
S      -47.44060000     -36.53540000     -70.96370000
C      -46.73430000     -31.83910000     -72.96080000
H      -47.22820000     -32.43450000     -72.17690000
H      -47.46190000     -31.66820000     -73.73400000
C      -46.76210000     -35.55020000     -72.37930000
H      -46.79370000     -34.54510000     -72.04220000
H      -47.45490000     -35.54610000     -73.16830000
C      -45.34570000     -35.89400000     -72.88590000
H      -45.20070000     -36.93340000     -72.72930000
H      -45.28830000     -35.68770000     -73.95990000
C      -45.52490000     -32.53570000     -73.74590000
H      -45.40330000     -31.87820000     -74.57720000
H      -45.83510000     -33.45080000     -74.18150000
C      -44.24290000     -32.57880000     -72.99250000
C      -43.26770000     -31.59550000     -73.03580000
C      -43.77440000     -33.79250000     -72.31270000
H      -43.36810000     -30.61150000     -73.57160000
C      -42.61220000     -33.55500000     -71.64980000
C      -44.12980000     -35.19930000     -72.23930000
C      -43.32410000     -35.85150000     -71.36210000
S      -41.95500000     -31.95070000     -71.88100000
S      -42.01640000     -34.77770000     -70.65820000
H      -43.36680000     -36.93000000     -71.10490000
