40
Properties=species:S:1:pos:R:3 #=T CELL(abcABC):=T 1.889726e+02=T 90.00000=T Traj:=T positionsangstrom=T Step:=T 0=T Bead:=T pbc="F F F"
C      -44.85990000     -30.93210000     -72.04250000
C      -43.58380000     -31.57140000     -71.91750000
C      -43.11990000     -32.06130000     -70.73280000
C      -43.86790000     -31.80500000     -69.53730000
C      -45.10860000     -31.13460000     -69.62190000
C      -45.55130000     -30.67800000     -70.87540000
H      -45.19340000     -30.53430000     -73.00550000
H      -42.17330000     -32.60960000     -70.71220000
H      -45.73610000     -30.74540000     -68.80470000
H      -46.51230000     -30.19000000     -70.87490000
C      -43.29560000     -32.20810000     -68.12940000
H      -43.97100000     -31.97550000     -67.25900000
H      -42.26550000     -31.68210000     -68.07220000
C      -42.89640000     -31.74860000     -73.25290000
H      -42.83160000     -30.83560000     -73.85320000
H      -41.88570000     -31.97130000     -72.92230000
S      -42.97400000     -34.00030000     -68.07720000
S      -43.62000000     -33.07930000     -74.36260000
C      -44.50060000     -34.99600000     -68.38390000
H      -44.30550000     -35.95030000     -67.88190000
H      -45.27560000     -34.42550000     -67.86020000
C      -43.41470000     -34.47190000     -73.03900000
H      -43.36320000     -33.96740000     -72.05890000
H      -42.47700000     -34.97780000     -73.36690000
C      -44.58520000     -35.39230000     -73.13890000
H      -44.62170000     -35.88700000     -74.13960000
H      -44.47620000     -36.28610000     -72.48590000
C      -44.85720000     -35.08190000     -69.87610000
H      -44.77270000     -36.14310000     -70.26810000
H      -44.14130000     -34.48320000     -70.43920000
C      -46.25060000     -34.60940000     -70.29170000
C      -47.29020000     -34.16570000     -69.51010000
C      -46.64400000     -34.48200000     -71.70960000
H      -47.37630000     -34.27950000     -68.38720000
C      -47.91730000     -33.89100000     -71.88350000
C      -45.95820000     -34.83050000     -72.88710000
C      -46.73180000     -34.41420000     -73.98490000
S      -48.73010000     -33.58690000     -70.32610000
S      -48.36770000     -33.73630000     -73.57750000
H      -46.50550000     -34.60500000     -75.07390000
