40
Properties=species:S:1:pos:R:3 #=T CELL(abcABC):=T 1.889726e+02=T 90.00000=T Traj:=T positionsangstrom=T Step:=T 0=T Bead:=T pbc="F F F"
C      -45.24700000     -31.07290000     -72.10100000
C      -43.96920000     -31.48570000     -72.34760000
C      -43.23870000     -31.83450000     -71.17670000
C      -43.68560000     -31.59110000     -69.88280000
C      -45.00450000     -31.15540000     -69.67120000
C      -45.75550000     -30.96410000     -70.80210000
H      -46.03610000     -30.87810000     -72.86450000
H      -42.12230000     -32.13000000     -71.29600000
H      -45.22200000     -30.73710000     -68.69540000
H      -46.71940000     -30.52330000     -70.67800000
C      -42.89890000     -31.96770000     -68.71940000
H      -43.54880000     -31.72920000     -67.85820000
H      -41.99120000     -31.34280000     -68.66240000
C      -43.31060000     -31.49980000     -73.73160000
H      -43.77520000     -30.79040000     -74.34470000
H      -42.21750000     -31.44900000     -73.77100000
S      -42.56790000     -33.83660000     -68.62240000
S      -43.69190000     -33.20260000     -74.48460000
C      -44.29230000     -34.43210000     -68.39570000
H      -44.39210000     -35.18460000     -67.63420000
H      -44.88370000     -33.53690000     -68.17750000
C      -43.47660000     -34.39220000     -73.00260000
H      -43.54420000     -33.76440000     -72.08370000
H      -42.56820000     -34.95970000     -73.07210000
C      -44.65950000     -35.43170000     -72.99250000
H      -44.68220000     -35.87680000     -73.95580000
H      -44.50890000     -36.24650000     -72.30950000
C      -44.84580000     -35.16260000     -69.63730000
H      -44.77490000     -36.18740000     -69.47480000
H      -44.20420000     -34.94190000     -70.51870000
C      -46.27750000     -34.84550000     -70.01530000
C      -47.34350000     -34.54120000     -69.18570000
C      -46.61880000     -34.52430000     -71.35680000
H      -47.27300000     -34.53570000     -68.03980000
C      -47.93510000     -34.03220000     -71.57150000
C      -45.99130000     -34.76530000     -72.66080000
C      -46.74800000     -34.30060000     -73.72480000
S      -48.74810000     -34.00010000     -70.00110000
S      -48.32770000     -33.61680000     -73.15220000
H      -46.44620000     -34.33600000     -74.75240000
