40
Properties=species:S:1:pos:R:3 #=T CELL(abcABC):=T 1.889726e+02=T 90.00000=T Traj:=T positionsangstrom=T Step:=T 0=T Bead:=T pbc="F F F"
C      -48.52630000     -33.57410000     -69.04120000
C      -47.17220000     -33.78350000     -69.33690000
C      -46.40620000     -32.74170000     -69.80900000
C      -47.01450000     -31.54550000     -70.25500000
C      -48.38430000     -31.30600000     -70.02550000
C      -49.11670000     -32.31010000     -69.36250000
H      -49.10340000     -34.38780000     -68.57010000
H      -45.27300000     -32.68970000     -69.83140000
H      -48.91780000     -30.38970000     -70.37270000
H      -50.16580000     -32.08110000     -69.14940000
C      -46.13170000     -30.45660000     -70.92010000
H      -45.09110000     -30.61680000     -70.71520000
H      -46.43590000     -29.42760000     -70.54360000
C      -46.50670000     -35.08360000     -69.09340000
H      -45.42360000     -35.02960000     -69.04930000
H      -46.97910000     -35.60990000     -68.26010000
S      -46.44220000     -30.20580000     -72.75830000
S      -47.14010000     -36.19440000     -70.48540000
C      -46.21240000     -31.92490000     -73.50720000
H      -46.73180000     -32.63800000     -72.89540000
H      -46.76440000     -31.82610000     -74.49880000
C      -46.97750000     -35.23440000     -72.03720000
H      -47.00550000     -34.21590000     -71.67820000
H      -47.87430000     -35.54560000     -72.61200000
C      -45.68690000     -35.55590000     -72.93770000
H      -45.83010000     -36.61810000     -73.10470000
H      -45.78830000     -35.00550000     -73.90990000
C      -44.76910000     -32.26470000     -73.83080000
H      -44.36930000     -31.46520000     -74.40380000
H      -44.75650000     -33.19660000     -74.44190000
C      -43.88600000     -32.55880000     -72.66100000
C      -42.95170000     -31.68110000     -72.30910000
C      -43.76230000     -33.90600000     -72.12500000
H      -42.82220000     -30.65570000     -72.54150000
C      -42.58670000     -33.88800000     -71.32260000
C      -44.35460000     -35.20940000     -72.27810000
C      -43.60090000     -36.23490000     -71.79690000
S      -41.71380000     -32.32900000     -71.20750000
S      -42.18230000     -35.47130000     -70.86730000
H      -44.00090000     -37.22980000     -71.62580000
