40
Properties=species:S:1:pos:R:3 #=T CELL(abcABC):=T 1.889726e+02=T 90.00000=T Traj:=T positionsangstrom=T Step:=T 0=T Bead:=T pbc="F F F"
C      -48.73660000     -32.67970000     -72.70910000
C      -47.96820000     -31.53340000     -72.25990000
C      -47.76040000     -31.33980000     -70.87430000
C      -48.31420000     -32.21450000     -69.89330000
C      -49.13800000     -33.24720000     -70.34760000
C      -49.24760000     -33.51190000     -71.71270000
H      -49.00340000     -32.99020000     -73.73670000
H      -47.10600000     -30.57790000     -70.51030000
H      -49.63630000     -34.01190000     -69.63770000
H      -49.90170000     -34.30690000     -72.07840000
C      -48.04250000     -31.94770000     -68.38930000
H      -48.65560000     -32.60530000     -67.84320000
H      -48.32510000     -30.90530000     -68.16150000
C      -47.26590000     -30.54430000     -73.16880000
H      -47.56930000     -30.88840000     -74.17750000
H      -47.56750000     -29.48590000     -73.01980000
S      -46.23500000     -32.16690000     -67.97200000
S      -45.43280000     -30.51080000     -73.19990000
C      -45.41590000     -33.53400000     -69.03500000
H      -45.05760000     -34.20860000     -68.26260000
H      -46.08290000     -34.03410000     -69.74630000
C      -44.74770000     -32.18830000     -73.27280000
H      -43.74500000     -32.11340000     -72.88180000
H      -44.57310000     -32.37850000     -74.32790000
C      -45.54130000     -33.36420000     -72.63340000
H      -45.98130000     -33.01030000     -71.70800000
H      -46.37640000     -33.71590000     -73.23340000
C      -44.19090000     -32.93370000     -69.69540000
H      -43.68810000     -32.18960000     -69.00710000
H      -44.63670000     -32.24910000     -70.48230000
C      -43.31150000     -34.02650000     -70.31070000
C      -42.17520000     -34.46900000     -69.72120000
C      -43.66140000     -34.65580000     -71.55200000
H      -41.81200000     -34.01640000     -68.81710000
C      -42.74340000     -35.67300000     -71.82610000
C      -44.68350000     -34.55840000     -72.58470000
C      -44.49470000     -35.51390000     -73.53420000
S      -41.46000000     -35.83830000     -70.65390000
S      -43.03130000     -36.47430000     -73.36050000
H      -45.16790000     -35.59040000     -74.39470000
