40
Properties=species:S:1:pos:R:3 #=T CELL(abcABC):=T 1.889726e+02=T 90.00000=T Traj:=T positionsangstrom=T Step:=T 0=T Bead:=T pbc="F F F"
C      -48.83820000     -32.36810000     -71.38270000
C      -48.37460000     -32.75120000     -72.65860000
C      -47.37450000     -31.93990000     -73.28760000
C      -46.84530000     -30.79660000     -72.66460000
C      -47.32390000     -30.43960000     -71.39820000
C      -48.32250000     -31.26440000     -70.78600000
H      -49.68620000     -32.80170000     -70.92100000
H      -47.01570000     -32.23710000     -74.27350000
H      -46.90720000     -29.61370000     -70.83890000
H      -48.61180000     -31.04600000     -69.71620000
C      -45.85970000     -29.91770000     -73.48210000
H      -45.64080000     -28.96470000     -73.02500000
H      -46.26850000     -29.76940000     -74.50190000
C      -48.80420000     -34.00080000     -73.35410000
H      -49.65590000     -34.48270000     -72.72550000
H      -49.13310000     -33.90770000     -74.35030000
S      -44.28330000     -30.77580000     -73.95650000
S      -47.37160000     -35.27300000     -73.47220000
C      -43.60280000     -31.29420000     -72.27100000
H      -42.56380000     -31.16960000     -72.41610000
H      -43.88770000     -30.45080000     -71.63760000
C      -46.79040000     -35.26190000     -71.69930000
H      -47.55330000     -35.65530000     -70.99380000
H      -46.67380000     -34.19290000     -71.39190000
C      -45.41710000     -35.85400000     -71.77160000
H      -45.42500000     -36.95980000     -72.13850000
H      -44.86090000     -35.33400000     -72.57400000
C      -44.05090000     -32.70760000     -71.92370000
H      -43.72710000     -33.41440000     -72.67270000
H      -45.15390000     -32.88180000     -72.02930000
C      -43.61180000     -33.16130000     -70.51980000
C      -42.84940000     -32.44160000     -69.65470000
C      -43.90090000     -34.48900000     -70.05660000
H      -42.62220000     -31.42050000     -69.86060000
C      -43.25990000     -34.71210000     -68.82740000
C      -44.51820000     -35.75420000     -70.55170000
C      -44.36800000     -36.79090000     -69.66240000
S      -42.46650000     -33.29230000     -68.19520000
S      -43.43150000     -36.30820000     -68.22020000
H      -44.79760000     -37.72710000     -69.68720000
