40
Properties=species:S:1:pos:R:3 #=T CELL(abcABC):=T 1.889726e+02=T 90.00000=T Traj:=T positionsangstrom=T Step:=T 0=T Bead:=T pbc="F F F"
C      -49.10800000     -32.42130000     -72.65430000
C      -48.18600000     -31.54710000     -72.12610000
C      -47.81790000     -31.69650000     -70.76620000
C      -48.38630000     -32.62620000     -69.97770000
C      -49.36870000     -33.48710000     -70.46980000
C      -49.69310000     -33.40560000     -71.82220000
H      -49.42940000     -32.34050000     -73.73630000
H      -46.94980000     -31.10390000     -70.33710000
H      -49.74730000     -34.28710000     -69.81640000
H      -50.49090000     -34.01350000     -72.29440000
C      -48.08540000     -32.86100000     -68.51680000
H      -47.90520000     -33.92210000     -68.34470000
H      -48.81630000     -32.49230000     -67.84340000
C      -47.43970000     -30.64640000     -73.07240000
H      -47.68970000     -30.89980000     -74.05160000
H      -47.72980000     -29.61710000     -72.84170000
S      -46.42360000     -32.10120000     -68.03230000
S      -45.56410000     -30.83930000     -72.95390000
C      -45.17540000     -33.27160000     -68.87720000
H      -44.53660000     -33.57110000     -68.04420000
H      -45.69950000     -34.11100000     -69.29930000
C      -45.47460000     -32.52150000     -73.78100000
H      -44.50630000     -32.64570000     -74.25470000
H      -46.20400000     -32.70810000     -74.60390000
C      -45.61950000     -33.71880000     -72.83400000
H      -45.84620000     -33.53950000     -71.86200000
H      -46.39570000     -34.30140000     -73.29730000
C      -44.30080000     -32.69400000     -69.96820000
H      -43.68040000     -31.95190000     -69.55730000
H      -44.83810000     -32.20330000     -70.79170000
C      -43.28520000     -33.66130000     -70.53640000
C      -42.18120000     -33.95450000     -69.74540000
C      -43.46000000     -34.50960000     -71.72710000
H      -41.96200000     -33.44920000     -68.78040000
C      -42.40590000     -35.40220000     -71.72950000
C      -44.38450000     -34.57280000     -72.79350000
C      -43.99560000     -35.57870000     -73.63210000
S      -41.26400000     -35.27860000     -70.36640000
S      -42.49600000     -36.41350000     -73.19550000
H      -44.47630000     -35.86500000     -74.59070000
