40
Properties=species:S:1:pos:R:3 #=T CELL(abcABC):=T 1.889726e+02=T 90.00000=T Traj:=T positionsangstrom=T Step:=T 0=T Bead:=T pbc="F F F"
C      -48.61570000     -32.64460000     -72.79740000
C      -47.99180000     -31.51340000     -72.27830000
C      -47.85850000     -31.34960000     -70.85530000
C      -48.33130000     -32.32840000     -69.99020000
C      -49.00870000     -33.50420000     -70.53580000
C      -49.17670000     -33.55800000     -71.89600000
H      -48.75930000     -32.75930000     -73.88580000
H      -47.43210000     -30.31840000     -70.56740000
H      -49.29720000     -34.31480000     -69.93510000
H      -49.72300000     -34.41560000     -72.27170000
C      -48.11190000     -32.00450000     -68.53740000
H      -48.66270000     -32.66140000     -67.88750000
H      -48.35610000     -31.03930000     -68.14500000
C      -47.39350000     -30.43470000     -73.10010000
H      -47.79680000     -30.39610000     -74.07750000
H      -47.57190000     -29.44250000     -72.62030000
S      -46.40730000     -32.31550000     -67.89010000
S      -45.49030000     -30.65030000     -73.07780000
C      -45.39370000     -33.51300000     -69.05230000
H      -45.05200000     -34.43290000     -68.59530000
H      -45.93610000     -33.81790000     -69.89990000
C      -45.11260000     -32.33090000     -73.72700000
H      -44.01230000     -32.40510000     -73.90840000
H      -45.61180000     -32.35240000     -74.69990000
C      -45.61350000     -33.49100000     -72.77290000
H      -45.77740000     -33.04180000     -71.75600000
H      -46.52640000     -33.96040000     -73.21870000
C      -44.15210000     -32.76430000     -69.70100000
H      -43.57300000     -32.15990000     -68.94270000
H      -44.57310000     -32.02660000     -70.48220000
C      -43.28920000     -33.85470000     -70.27090000
C      -42.10900000     -34.22440000     -69.67620000
C      -43.53880000     -34.55950000     -71.55420000
H      -41.72330000     -33.83720000     -68.72760000
C      -42.64430000     -35.58720000     -71.79010000
C      -44.55400000     -34.51850000     -72.61460000
C      -44.31750000     -35.47940000     -73.56100000
S      -41.38180000     -35.55970000     -70.49780000
S      -42.95110000     -36.57230000     -73.21100000
H      -44.92260000     -35.74800000     -74.43610000
