40
Properties=species:S:1:pos:R:3 #=T CELL(abcABC):=T 1.889726e+02=T 90.00000=T Traj:=T positionsangstrom=T Step:=T 0=T Bead:=T pbc="F F F"
C      -48.88830000     -32.16140000     -71.30410000
C      -48.51390000     -32.50580000     -72.60650000
C      -47.43350000     -31.89810000     -73.24600000
C      -46.83060000     -30.72820000     -72.69820000
C      -47.18580000     -30.35030000     -71.39180000
C      -48.18800000     -31.07490000     -70.70610000
H      -49.60590000     -32.64670000     -70.64030000
H      -47.05920000     -32.39380000     -74.13010000
H      -46.81140000     -29.46680000     -70.97450000
H      -48.46540000     -30.81540000     -69.71630000
C      -45.69060000     -29.94090000     -73.35060000
H      -45.29290000     -29.20860000     -72.61180000
H      -46.02080000     -29.25210000     -74.18250000
C      -48.86260000     -33.86780000     -73.24180000
H      -49.61100000     -34.43390000     -72.59350000
H      -49.39400000     -33.83270000     -74.19050000
S      -44.39060000     -31.06970000     -73.97060000
S      -47.43520000     -34.96620000     -73.60250000
C      -43.58210000     -31.40680000     -72.37850000
H      -42.46610000     -31.25150000     -72.38950000
H      -43.86110000     -30.70580000     -71.53560000
C      -46.68060000     -35.34480000     -71.93710000
H      -47.22750000     -36.15630000     -71.51140000
H      -46.77520000     -34.48510000     -71.32440000
C      -45.20100000     -35.78770000     -71.91460000
H      -45.19180000     -36.80620000     -72.24020000
H      -44.60740000     -35.29540000     -72.66310000
C      -43.91020000     -32.88580000     -71.93280000
H      -43.46610000     -33.53110000     -72.63780000
H      -45.03000000     -32.98380000     -71.93130000
C      -43.58150000     -33.24380000     -70.47320000
C      -42.70380000     -32.47050000     -69.71890000
C      -43.90340000     -34.52670000     -69.98810000
H      -42.10700000     -31.58780000     -70.05340000
C      -43.21880000     -34.79150000     -68.81220000
C      -44.62340000     -35.72300000     -70.51490000
C      -44.63090000     -36.73500000     -69.55650000
S      -42.40190000     -33.31760000     -68.21570000
S      -43.57190000     -36.46860000     -68.14970000
H      -45.10470000     -37.65690000     -69.56860000
