40
Properties=species:S:1:pos:R:3 #=T CELL(abcABC):=T 1.889726e+02=T 90.00000=T Traj:=T positionsangstrom=T Step:=T 0=T Bead:=T pbc="F F F"
C      -48.73370000     -32.82440000     -72.62080000
C      -47.92560000     -31.72420000     -72.34470000
C      -47.86330000     -31.32290000     -70.95230000
C      -48.47610000     -32.13900000     -70.01370000
C      -49.29130000     -33.29450000     -70.27920000
C      -49.44430000     -33.53090000     -71.62870000
H      -49.04030000     -33.17330000     -73.65850000
H      -47.25620000     -30.51870000     -70.59850000
H      -49.74410000     -33.94660000     -69.51490000
H      -50.18750000     -34.21090000     -71.95820000
C      -48.28900000     -31.76740000     -68.53730000
H      -48.67590000     -32.46060000     -67.82350000
H      -48.79360000     -30.82560000     -68.42030000
C      -47.17910000     -31.13970000     -73.45130000
H      -47.59340000     -31.37530000     -74.45530000
H      -46.95910000     -30.12200000     -73.26970000
S      -46.40520000     -31.67880000     -68.01130000
S      -45.50270000     -31.89030000     -73.53910000
C      -45.57070000     -33.35090000     -68.39390000
H      -44.63120000     -33.34480000     -67.81610000
H      -46.17510000     -34.10230000     -67.94230000
C      -45.90990000     -33.56850000     -74.17000000
H      -45.28750000     -33.67860000     -75.07830000
H      -47.01100000     -33.56660000     -74.32540000
C      -45.67640000     -34.73090000     -73.19550000
H      -46.29970000     -34.55380000     -72.36540000
H      -46.18760000     -35.55460000     -73.69370000
C      -45.36200000     -33.54910000     -69.86160000
H      -45.63210000     -32.69660000     -70.48780000
H      -46.05200000     -34.36170000     -70.11710000
C      -43.95340000     -33.94270000     -70.24080000
C      -42.83830000     -33.60640000     -69.49940000
C      -43.57490000     -34.61850000     -71.44880000
H      -42.66040000     -32.81320000     -68.78350000
C      -42.19240000     -34.92710000     -71.53530000
C      -44.22590000     -35.00280000     -72.70990000
C      -43.38280000     -35.72530000     -73.56300000
S      -41.35890000     -34.28850000     -70.20210000
S      -41.75560000     -35.81690000     -72.99900000
H      -43.66330000     -36.10970000     -74.52410000
