40
Properties=species:S:1:pos:R:3 #=T CELL(abcABC):=T 1.889726e+02=T 90.00000=T Traj:=T positionsangstrom=T Step:=T 0=T Bead:=T pbc="F F F"
C      -47.81300000     -33.72680000     -67.86750000
C      -46.50510000     -33.30800000     -67.67190000
C      -45.39920000     -34.09700000     -68.02880000
C      -45.62790000     -35.36350000     -68.54580000
C      -46.93100000     -35.82430000     -68.76700000
C      -47.99360000     -35.04300000     -68.39200000
H      -48.73950000     -33.19130000     -67.67840000
H      -44.37800000     -33.74060000     -67.94660000
H      -47.06070000     -36.85930000     -69.10170000
H      -48.92970000     -35.55560000     -68.50870000
C      -44.37830000     -36.17410000     -68.99880000
H      -44.22180000     -36.74040000     -68.13300000
H      -43.59170000     -35.46000000     -69.27170000
C      -46.22880000     -31.87080000     -67.40300000
H      -46.80640000     -31.34660000     -66.59800000
H      -45.19550000     -31.63920000     -67.19400000
S      -44.42970000     -37.21500000     -70.55470000
S      -46.70030000     -30.83250000     -68.91730000
C      -44.79210000     -35.91720000     -71.78310000
H      -44.40230000     -36.36040000     -72.70810000
H      -45.88120000     -35.66460000     -71.99370000
C      -45.70060000     -31.63260000     -70.29280000
H      -45.08690000     -32.39760000     -69.90430000
H      -45.02490000     -30.85620000     -70.71000000
C      -46.56930000     -31.97150000     -71.50710000
H      -47.20060000     -32.88330000     -71.34480000
H      -47.35360000     -31.22860000     -71.61370000
C      -44.08000000     -34.53030000     -71.57410000
H      -43.08360000     -34.85200000     -71.18000000
H      -44.55260000     -33.95240000     -70.78370000
C      -43.99250000     -33.78340000     -72.91860000
C      -43.08620000     -34.14640000     -73.89490000
C      -44.77690000     -32.65550000     -73.42430000
H      -42.25940000     -34.91810000     -73.74390000
C      -44.37460000     -32.19330000     -74.67090000
C      -45.86520000     -31.83770000     -72.89910000
C      -46.17290000     -30.81110000     -73.77750000
S      -42.93590000     -33.00460000     -75.30460000
S      -45.21610000     -30.75450000     -75.19660000
H      -46.99060000     -30.08550000     -73.63360000
