40
Properties=species:S:1:pos:R:3 #=T CELL(abcABC):=T 1.889726e+02=T 90.00000=T Traj:=T positionsangstrom=T Step:=T 0=T Bead:=T pbc="F F F"
C      -47.85070000     -33.88280000     -68.41570000
C      -46.60800000     -33.39640000     -68.13350000
C      -45.50240000     -34.22430000     -68.21540000
C      -45.77600000     -35.54640000     -68.63980000
C      -47.02890000     -36.05700000     -68.97180000
C      -48.13220000     -35.16490000     -68.83930000
H      -48.72200000     -33.22930000     -68.25750000
H      -44.44780000     -33.94470000     -68.00970000
H      -47.13490000     -37.11300000     -69.24320000
H      -49.18780000     -35.37460000     -68.95780000
C      -44.55420000     -36.48850000     -68.59520000
H      -44.79150000     -37.45070000     -68.05130000
H      -43.78290000     -36.02860000     -67.97680000
C      -46.48950000     -31.91440000     -67.93170000
H      -46.85230000     -31.60790000     -66.92130000
H      -45.37540000     -31.67220000     -67.96480000
S      -43.79960000     -37.02410000     -70.16600000
S      -47.48690000     -30.94580000     -69.15070000
C      -44.40570000     -35.77800000     -71.39630000
H      -44.23530000     -36.33110000     -72.35360000
H      -45.47920000     -35.58730000     -71.27660000
C      -46.37630000     -30.48930000     -70.53670000
H      -45.71920000     -29.68530000     -70.23450000
H      -47.04890000     -30.08850000     -71.28720000
C      -45.49950000     -31.61950000     -71.01000000
H      -44.57840000     -31.51640000     -70.48150000
H      -45.90120000     -32.67500000     -70.73120000
C      -43.64640000     -34.39910000     -71.47940000
H      -42.58170000     -34.49650000     -71.17330000
H      -44.09020000     -33.75110000     -70.69910000
C      -43.66240000     -33.75320000     -72.87900000
C      -43.02760000     -34.25820000     -74.01950000
C      -44.39180000     -32.55890000     -73.24130000
H      -42.33080000     -35.10690000     -73.98440000
C      -44.32100000     -32.23720000     -74.58000000
C      -45.21690000     -31.54890000     -72.52480000
C      -45.79900000     -30.64270000     -73.36270000
S      -43.41940000     -33.39350000     -75.49330000
S      -45.38990000     -30.86140000     -75.07180000
H      -46.42490000     -29.80960000     -73.13130000
