40
Properties=species:S:1:pos:R:3 #=T CELL(abcABC):=T 1.889726e+02=T 90.00000=T Traj:=T positionsangstrom=T Step:=T 0=T Bead:=T pbc="F F F"
C      -48.96070000     -32.70030000     -72.53910000
C      -47.82470000     -31.84780000     -72.17640000
C      -47.64070000     -31.60840000     -70.81520000
C      -48.47480000     -32.27630000     -69.84840000
C      -49.50300000     -33.15210000     -70.21190000
C      -49.80790000     -33.23610000     -71.60740000
H      -49.14520000     -33.02060000     -73.60880000
H      -46.84760000     -30.99950000     -70.40880000
H      -50.22010000     -33.59820000     -69.49290000
H      -50.57450000     -33.97780000     -71.92890000
C      -48.13440000     -32.01940000     -68.32080000
H      -48.48640000     -32.86470000     -67.74470000
H      -48.64660000     -31.11370000     -67.89990000
C      -46.95820000     -31.04520000     -73.19970000
H      -47.49000000     -31.01440000     -74.19690000
H      -46.92300000     -30.00600000     -72.90010000
S      -46.38010000     -31.74330000     -67.80610000
S      -45.33590000     -31.85770000     -73.61690000
C      -45.58380000     -33.30060000     -68.47450000
H      -44.68590000     -33.48980000     -67.88370000
H      -46.28770000     -34.17030000     -68.26400000
C      -45.71850000     -33.53520000     -74.25660000
H      -45.07680000     -33.86590000     -75.06920000
H      -46.69750000     -33.56520000     -74.70540000
C      -45.73150000     -34.61590000     -73.18190000
H      -46.35990000     -34.27270000     -72.38540000
H      -46.15780000     -35.59110000     -73.62530000
C      -45.24080000     -33.21840000     -69.99650000
H      -45.17650000     -32.13390000     -70.32300000
H      -45.97720000     -33.73440000     -70.53920000
C      -43.93120000     -33.87000000     -70.36300000
C      -42.82560000     -33.80720000     -69.56780000
C      -43.55030000     -34.48790000     -71.62200000
H      -42.77450000     -33.45560000     -68.54510000
C      -42.20580000     -34.88040000     -71.70690000
C      -44.33110000     -34.92950000     -72.72860000
C      -43.60190000     -35.71620000     -73.61870000
S      -41.38660000     -34.48840000     -70.25920000
S      -41.87710000     -35.80130000     -73.17100000
H      -44.06600000     -35.83780000     -74.58500000
