40
Properties=species:S:1:pos:R:3 #=T CELL(abcABC):=T 1.889726e+02=T 90.00000=T Traj:=T positionsangstrom=T Step:=T 0=T Bead:=T pbc="F F F"
C      -48.80700000     -33.37150000     -72.68300000
C      -48.00490000     -32.17630000     -72.46940000
C      -47.96380000     -31.63080000     -71.22350000
C      -48.71530000     -32.13970000     -70.16340000
C      -49.50660000     -33.27540000     -70.39490000
C      -49.55620000     -33.88510000     -71.71150000
H      -48.76130000     -33.85150000     -73.64900000
H      -47.46600000     -30.67720000     -71.15370000
H      -50.04790000     -33.70170000     -69.59670000
H      -50.24180000     -34.76010000     -71.88050000
C      -48.52890000     -31.61930000     -68.73100000
H      -49.12400000     -32.31210000     -68.10450000
H      -48.95370000     -30.60840000     -68.55890000
C      -47.26220000     -31.53930000     -73.59360000
H      -47.77690000     -31.61950000     -74.51400000
H      -47.16000000     -30.46230000     -73.54860000
S      -46.74270000     -31.33140000     -68.27640000
S      -45.42100000     -32.05600000     -73.78150000
C      -45.97230000     -33.10820000     -68.58960000
H      -45.23150000     -33.15290000     -67.83600000
H      -46.69800000     -33.86410000     -68.27250000
C      -45.58870000     -33.79770000     -74.41030000
H      -44.88190000     -34.07130000     -75.25030000
H      -46.57630000     -34.04900000     -74.87020000
C      -45.38770000     -34.80010000     -73.19800000
H      -46.08040000     -34.46720000     -72.37740000
H      -45.58710000     -35.82070000     -73.40090000
C      -45.40800000     -33.35490000     -70.01890000
H      -45.52930000     -32.38420000     -70.60320000
H      -46.05980000     -34.08820000     -70.51310000
C      -43.98760000     -33.92790000     -70.17480000
C      -43.10260000     -33.87900000     -69.13420000
C      -43.43900000     -34.44870000     -71.40780000
H      -43.35600000     -33.53440000     -68.16530000
C      -42.05960000     -34.69320000     -71.25000000
C      -43.95080000     -34.88490000     -72.71130000
C      -42.92440000     -35.41630000     -73.48640000
S      -41.41500000     -34.35270000     -69.68870000
S      -41.32080000     -35.43210000     -72.60360000
H      -42.93460000     -35.87540000     -74.51110000
