40
Properties=species:S:1:pos:R:3 #=T CELL(abcABC):=T 1.889726e+02=T 90.00000=T Traj:=T positionsangstrom=T Step:=T 0=T Bead:=T pbc="F F F"
C      -47.62440000     -34.12210000     -68.06760000
C      -46.42150000     -33.38370000     -67.90740000
C      -45.20210000     -34.13210000     -67.88980000
C      -45.17860000     -35.46290000     -68.25000000
C      -46.36120000     -36.17580000     -68.39680000
C      -47.58950000     -35.49350000     -68.33800000
H      -48.59570000     -33.65230000     -68.17240000
H      -44.25560000     -33.52390000     -67.72070000
H      -46.41230000     -37.24360000     -68.56100000
H      -48.57600000     -35.92010000     -68.49480000
C      -43.81600000     -36.05890000     -68.39890000
H      -43.57070000     -36.95790000     -67.77320000
H      -43.08150000     -35.26820000     -68.04490000
C      -46.49750000     -31.88880000     -67.73480000
H      -47.19300000     -31.67250000     -66.97370000
H      -45.47160000     -31.44200000     -67.57920000
S      -43.50980000     -36.53440000     -70.15870000
S      -47.35100000     -31.06210000     -69.20530000
C      -44.37790000     -35.23930000     -71.16440000
H      -44.54220000     -35.67230000     -72.13980000
H      -45.34780000     -35.17230000     -70.70790000
C      -46.27390000     -31.17500000     -70.71090000
H      -45.31680000     -31.46830000     -70.32010000
H      -46.31040000     -30.17770000     -71.15300000
C      -46.94570000     -32.15460000     -71.76170000
H      -46.93600000     -33.17380000     -71.37390000
H      -47.95630000     -31.97570000     -71.94850000
C      -43.75810000     -33.86480000     -71.35910000
H      -42.75600000     -33.73860000     -71.15970000
H      -44.35250000     -33.15980000     -70.72700000
C      -43.81300000     -33.39640000     -72.77110000
C      -42.78130000     -33.60480000     -73.64290000
C      -44.90950000     -32.61290000     -73.45010000
H      -41.85850000     -34.11350000     -73.35220000
C      -44.57640000     -32.24680000     -74.75440000
C      -46.24550000     -32.17030000     -73.11210000
C      -46.85600000     -31.51120000     -74.15870000
S      -43.00330000     -32.88040000     -75.23110000
S      -45.82600000     -31.47790000     -75.63670000
H      -47.85700000     -30.98210000     -74.15570000
