40
Properties=species:S:1:pos:R:3 #=T CELL(abcABC):=T 1.889726e+02=T 90.00000=T Traj:=T positionsangstrom=T Step:=T 0=T Bead:=T pbc="F F F"
C      -47.94290000     -34.07220000     -68.15860000
C      -46.80790000     -33.28250000     -68.03530000
C      -45.49460000     -33.92430000     -68.12700000
C      -45.41100000     -35.26390000     -68.38450000
C      -46.61130000     -36.01780000     -68.67980000
C      -47.86770000     -35.44190000     -68.54610000
H      -48.96210000     -33.65320000     -68.05460000
H      -44.66870000     -33.30520000     -68.02540000
H      -46.47240000     -37.05130000     -69.02870000
H      -48.80990000     -35.95280000     -68.80150000
C      -44.03510000     -35.89850000     -68.58760000
H      -43.92280000     -36.62290000     -67.75610000
H      -43.19440000     -35.16450000     -68.65030000
C      -46.90980000     -31.81010000     -67.81650000
H      -47.38770000     -31.51160000     -66.89600000
H      -45.84230000     -31.46710000     -67.77020000
S      -43.87400000     -36.84790000     -70.11620000
S      -47.74660000     -30.94700000     -69.22240000
C      -44.59030000     -35.70860000     -71.38950000
H      -44.76480000     -36.37250000     -72.26600000
H      -45.51600000     -35.29940000     -70.90730000
C      -46.36760000     -30.82120000     -70.57090000
H      -45.50050000     -30.58740000     -69.99710000
H      -46.69310000     -30.01060000     -71.25060000
C      -46.16530000     -32.14810000     -71.33820000
H      -45.63890000     -32.83590000     -70.75180000
H      -47.15900000     -32.60500000     -71.55250000
C      -43.62570000     -34.53830000     -71.69250000
H      -42.61300000     -34.98080000     -71.66710000
H      -43.70440000     -33.76310000     -70.90540000
C      -43.79220000     -33.90420000     -73.05850000
C      -42.97530000     -34.32470000     -74.11830000
C      -44.62440000     -32.77580000     -73.39250000
H      -42.29190000     -35.08970000     -74.00800000
C      -44.34630000     -32.27770000     -74.67800000
C      -45.53790000     -31.86780000     -72.72000000
C      -45.82020000     -30.78820000     -73.45270000
S      -43.08960000     -33.28890000     -75.47510000
S      -45.11380000     -30.77340000     -75.05120000
H      -46.59730000     -30.09680000     -73.28320000
