40
Properties=species:S:1:pos:R:3 #=T CELL(abcABC):=T 1.889726e+02=T 90.00000=T Traj:=T positionsangstrom=T Step:=T 0=T Bead:=T pbc="F F F"
C      -48.07830000     -34.25500000     -68.42810000
C      -46.79360000     -33.55950000     -68.35360000
C      -45.58190000     -34.18770000     -68.34960000
C      -45.60940000     -35.58960000     -68.43830000
C      -46.82450000     -36.27450000     -68.49470000
C      -48.05420000     -35.64560000     -68.49550000
H      -48.95240000     -33.74930000     -68.28090000
H      -44.62640000     -33.64220000     -68.17400000
H      -46.82690000     -37.34180000     -68.31530000
H      -48.94600000     -36.21590000     -68.38910000
C      -44.32050000     -36.27490000     -68.45660000
H      -44.25610000     -37.15470000     -67.78910000
H      -43.48980000     -35.58930000     -68.07800000
C      -46.77850000     -32.03430000     -68.05980000
H      -47.40700000     -31.82510000     -67.11790000
H      -45.79780000     -31.67620000     -67.84990000
S      -43.80580000     -36.84910000     -70.14590000
S      -47.51540000     -30.83930000     -69.19890000
C      -44.35100000     -35.52850000     -71.30660000
H      -44.48400000     -36.06880000     -72.28230000
H      -45.33480000     -35.16690000     -70.88130000
C      -46.21760000     -30.53670000     -70.44400000
H      -45.30570000     -30.10920000     -69.92880000
H      -46.56970000     -29.70450000     -71.04770000
C      -45.83310000     -31.78310000     -71.22820000
H      -45.14220000     -32.35240000     -70.55940000
H      -46.65790000     -32.43350000     -71.28920000
C      -43.48070000     -34.27910000     -71.52360000
H      -42.44070000     -34.59820000     -71.40160000
H      -43.57190000     -33.45730000     -70.83420000
C      -43.63550000     -33.72130000     -72.92450000
C      -43.12090000     -34.33520000     -74.09340000
C      -44.41460000     -32.51830000     -73.25510000
H      -42.63710000     -35.27820000     -74.24030000
C      -44.38230000     -32.24770000     -74.63630000
C      -45.27310000     -31.53400000     -72.60110000
C      -45.70900000     -30.57260000     -73.43350000
S      -43.54180000     -33.45570000     -75.53710000
S      -45.16560000     -30.71640000     -75.13010000
H      -46.34620000     -29.76130000     -73.10030000
