40
Properties=species:S:1:pos:R:3 #=T CELL(abcABC):=T 1.889726e+02=T 90.00000=T Traj:=T positionsangstrom=T Step:=T 0=T Bead:=T pbc="F F F"
C      -47.76320000     -34.06980000     -68.02160000
C      -46.58660000     -33.26370000     -68.02860000
C      -45.33550000     -33.86750000     -68.18650000
C      -45.25580000     -35.29920000     -68.27570000
C      -46.44670000     -36.05120000     -68.34390000
C      -47.67480000     -35.48520000     -68.10080000
H      -48.73360000     -33.51550000     -67.90640000
H      -44.43430000     -33.34290000     -68.18020000
H      -46.36430000     -37.17040000     -68.56470000
H      -48.60210000     -36.04280000     -68.01360000
C      -43.91800000     -36.00810000     -68.51850000
H      -44.03010000     -36.99850000     -67.99850000
H      -42.97600000     -35.48520000     -68.28210000
C      -46.64130000     -31.79570000     -67.84620000
H      -47.23720000     -31.52760000     -66.98980000
H      -45.67690000     -31.34080000     -67.83470000
S      -43.71110000     -36.61500000     -70.33210000
S      -47.59370000     -30.98000000     -69.30400000
C      -44.45370000     -35.21110000     -71.21620000
H      -44.82770000     -35.61480000     -72.15190000
H      -45.28140000     -34.88620000     -70.60030000
C      -46.28890000     -31.06920000     -70.57350000
H      -45.36610000     -31.14960000     -70.07750000
H      -46.39590000     -30.15000000     -71.10820000
C      -46.47170000     -32.26490000     -71.49780000
H      -46.14570000     -33.16440000     -71.07360000
H      -47.50150000     -32.38400000     -71.77570000
C      -43.34030000     -34.09960000     -71.48750000
H      -42.31380000     -34.47750000     -71.47130000
H      -43.39430000     -33.36470000     -70.72030000
C      -43.58630000     -33.52160000     -72.86350000
C      -42.66480000     -33.79650000     -73.84400000
C      -44.66770000     -32.67660000     -73.32420000
H      -41.74260000     -34.30260000     -73.72960000
C      -44.50710000     -32.34950000     -74.68290000
C      -45.91930000     -32.10450000     -72.84980000
C      -46.60670000     -31.41140000     -73.81580000
S      -43.08500000     -33.06180000     -75.40250000
S      -45.77260000     -31.41480000     -75.34670000
H      -47.44730000     -30.83410000     -73.66330000
