40
Properties=species:S:1:pos:R:3 #=T CELL(abcABC):=T 1.889726e+02=T 90.00000=T Traj:=T positionsangstrom=T Step:=T 0=T Bead:=T pbc="F F F"
C      -47.67970000     -34.06410000     -68.17440000
C      -46.49650000     -33.34030000     -67.92160000
C      -45.27600000     -34.01090000     -67.87670000
C      -45.22800000     -35.39450000     -68.14970000
C      -46.37480000     -36.11020000     -68.30980000
C      -47.57460000     -35.47390000     -68.27330000
H      -48.68620000     -33.63320000     -68.12200000
H      -44.37150000     -33.43860000     -67.57800000
H      -46.27130000     -37.14300000     -68.53230000
H      -48.51170000     -35.98210000     -68.45170000
C      -43.88290000     -36.05860000     -68.37730000
H      -43.79180000     -36.96540000     -67.78790000
H      -43.05810000     -35.42000000     -68.08200000
C      -46.52080000     -31.87880000     -67.75620000
H      -46.95710000     -31.58420000     -66.77810000
H      -45.50110000     -31.53000000     -67.65050000
S      -43.68810000     -36.50490000     -70.18540000
S      -47.42220000     -31.03170000     -69.07970000
C      -44.48960000     -35.22380000     -71.25660000
H      -44.60090000     -35.74670000     -72.19720000
H      -45.55690000     -34.98650000     -70.91600000
C      -46.33270000     -31.15320000     -70.65420000
H      -45.23650000     -31.14940000     -70.47670000
H      -46.43330000     -30.18680000     -71.15350000
C      -46.59640000     -32.32540000     -71.60140000
H      -46.17950000     -33.23590000     -71.14160000
H      -47.69960000     -32.37460000     -71.63560000
C      -43.69150000     -33.90640000     -71.44510000
H      -42.70640000     -34.11710000     -71.00970000
H      -44.15370000     -33.08230000     -70.86400000
C      -43.70510000     -33.44570000     -72.93110000
C      -42.63310000     -33.62140000     -73.76160000
C      -44.82130000     -32.66310000     -73.51250000
H      -41.71410000     -34.17760000     -73.71670000
C      -44.55640000     -32.35880000     -74.84050000
C      -46.03280000     -32.09120000     -73.01040000
C      -46.68210000     -31.42420000     -74.01540000
S      -43.03280000     -33.01830000     -75.42550000
S      -45.83390000     -31.44420000     -75.55340000
H      -47.62580000     -30.92340000     -73.88930000
