40
Properties=species:S:1:pos:R:3 #=T CELL(abcABC):=T 1.889726e+02=T 90.00000=T Traj:=T positionsangstrom=T Step:=T 0=T Bead:=T pbc="F F F"
C      -48.89360000     -35.17000000     -71.28970000
C      -48.65010000     -33.85110000     -71.74030000
C      -48.52110000     -32.81490000     -70.82160000
C      -48.43040000     -33.08130000     -69.44280000
C      -48.42850000     -34.42120000     -68.99790000
C      -48.72710000     -35.49040000     -69.91420000
H      -49.30280000     -35.98140000     -71.86070000
H      -48.36500000     -31.79350000     -71.09880000
H      -48.13560000     -34.71360000     -67.91510000
H      -48.94370000     -36.53560000     -69.59130000
C      -48.06380000     -31.99540000     -68.43500000
H      -47.88970000     -32.51740000     -67.51400000
H      -49.03840000     -31.32980000     -68.39120000
C      -48.71200000     -33.53840000     -73.27100000
H      -48.73770000     -34.45570000     -73.88220000
H      -49.58550000     -33.05550000     -73.62410000
S      -46.56620000     -30.95140000     -68.77410000
S      -47.33510000     -32.48570000     -73.85170000
C      -45.45610000     -32.26430000     -69.45880000
H      -44.85350000     -32.69760000     -68.62830000
H      -46.02470000     -33.14870000     -69.85660000
C      -45.91960000     -33.67030000     -73.87020000
H      -45.09410000     -33.04010000     -74.16650000
H      -46.13650000     -34.34020000     -74.71310000
C      -45.47460000     -34.46410000     -72.63270000
H      -45.95000000     -34.09150000     -71.76150000
H      -45.82270000     -35.51350000     -72.68130000
C      -44.58480000     -31.81130000     -70.56760000
H      -44.27220000     -30.77650000     -70.40990000
H      -45.18250000     -31.82610000     -71.45190000
C      -43.29220000     -32.58050000     -70.78390000
C      -42.07330000     -32.13510000     -70.22330000
C      -43.10130000     -33.68660000     -71.65840000
H      -41.91670000     -31.23740000     -69.60820000
C      -41.73620000     -34.06720000     -71.74560000
C      -43.94430000     -34.55240000     -72.46810000
C      -43.22230000     -35.41930000     -73.29710000
S      -40.72700000     -33.11620000     -70.77260000
S      -41.48350000     -35.35080000     -72.90000000
H      -43.61260000     -36.05800000     -74.07760000
