40
Properties=species:S:1:pos:R:3 #=T CELL(abcABC):=T 1.889726e+02=T 90.00000=T Traj:=T positionsangstrom=T Step:=T 0=T Bead:=T pbc="F F F"
C      -48.48170000     -35.24680000     -70.99490000
C      -48.40890000     -33.96690000     -71.54480000
C      -48.29400000     -32.90810000     -70.66800000
C      -48.18900000     -33.14270000     -69.25510000
C      -48.33070000     -34.41010000     -68.74820000
C      -48.46490000     -35.46600000     -69.63930000
H      -48.59890000     -36.08970000     -71.63290000
H      -48.33290000     -31.85210000     -71.02780000
H      -48.16910000     -34.52040000     -67.68350000
H      -48.60070000     -36.49720000     -69.35440000
C      -47.99350000     -32.08520000     -68.26700000
H      -47.78400000     -32.46920000     -67.28210000
H      -48.89030000     -31.49890000     -68.28210000
C      -48.56140000     -33.78920000     -73.04340000
H      -48.50350000     -34.75470000     -73.45470000
H      -49.62770000     -33.46880000     -73.27760000
S      -46.63910000     -30.80710000     -68.67610000
S      -47.41300000     -32.60480000     -73.82140000
C      -45.17380000     -31.87460000     -69.20240000
H      -44.29530000     -31.54110000     -68.73150000
H      -45.32810000     -32.89610000     -68.91390000
C      -45.91130000     -33.66980000     -74.24220000
H      -45.03180000     -33.06520000     -74.51840000
H      -46.16650000     -34.32860000     -75.06330000
C      -45.53920000     -34.51660000     -72.93780000
H      -45.96230000     -34.00140000     -72.07260000
H      -45.92800000     -35.49870000     -72.85110000
C      -44.85500000     -31.87880000     -70.80870000
H      -44.88570000     -30.81920000     -71.13690000
H      -45.65500000     -32.39310000     -71.36860000
C      -43.46050000     -32.48370000     -71.07750000
C      -42.29830000     -32.02370000     -70.40340000
C      -43.24510000     -33.63430000     -71.91870000
H      -42.24740000     -31.31860000     -69.57420000
C      -41.85320000     -33.96460000     -71.94100000
C      -44.01790000     -34.58810000     -72.72310000
C      -43.26620000     -35.58220000     -73.34410000
S      -40.86950000     -32.99950000     -70.92410000
S      -41.55880000     -35.39960000     -72.86010000
H      -43.69800000     -36.47000000     -73.85510000
