40
Properties=species:S:1:pos:R:3 #=T CELL(abcABC):=T 1.889726e+02=T 90.00000=T Traj:=T positionsangstrom=T Step:=T 0=T Bead:=T pbc="F F F"
C      -48.08870000     -34.75460000     -68.23760000
C      -47.14840000     -33.70750000     -68.21290000
C      -45.79160000     -34.04590000     -68.37510000
C      -45.32330000     -35.34560000     -68.45180000
C      -46.23990000     -36.35570000     -68.57500000
C      -47.57020000     -36.05290000     -68.46610000
H      -49.15630000     -34.61960000     -68.13720000
H      -44.98310000     -33.30480000     -68.34920000
H      -45.96510000     -37.35990000     -68.71360000
H      -48.29340000     -36.84820000     -68.63680000
C      -43.84900000     -35.60120000     -68.39400000
H      -43.55250000     -36.45540000     -67.72730000
H      -43.34340000     -34.61390000     -68.18310000
C      -47.62170000     -32.26820000     -68.07420000
H      -48.47320000     -32.24480000     -67.39600000
H      -46.90520000     -31.62420000     -67.54400000
S      -43.12730000     -36.24950000     -70.01370000
S      -48.17820000     -31.31090000     -69.59230000
C      -43.64970000     -34.99430000     -71.31890000
H      -43.43250000     -35.47420000     -72.23160000
H      -44.77050000     -34.86700000     -71.26730000
C      -46.48250000     -31.25290000     -70.39530000
H      -45.63950000     -31.32310000     -69.69530000
H      -46.43900000     -30.28340000     -70.92720000
C      -46.32260000     -32.47990000     -71.38520000
H      -45.63230000     -33.15210000     -70.91600000
H      -47.28750000     -33.01990000     -71.41910000
C      -43.05740000     -33.59800000     -71.34560000
H      -41.99750000     -33.73170000     -71.10080000
H      -43.45120000     -32.96400000     -70.58020000
C      -43.26620000     -33.00630000     -72.74770000
C      -42.27640000     -32.91380000     -73.67090000
C      -44.52820000     -32.57760000     -73.29980000
H      -41.22140000     -33.23610000     -73.67610000
C      -44.43200000     -32.27590000     -74.64240000
C      -45.87020000     -32.24480000     -72.79720000
C      -46.75260000     -31.81800000     -73.74470000
S      -42.81490000     -32.38470000     -75.22240000
S      -45.99080000     -31.74450000     -75.31290000
H      -47.86340000     -31.48760000     -73.57020000
