40
Properties=species:S:1:pos:R:3 #=T CELL(abcABC):=T 1.889726e+02=T 90.00000=T Traj:=T positionsangstrom=T Step:=T 0=T Bead:=T pbc="F F F"
C      -48.13380000     -35.56390000     -70.82720000
C      -48.51490000     -34.28620000     -71.26450000
C      -48.43150000     -33.14500000     -70.45410000
C      -48.00850000     -33.33000000     -69.13600000
C      -47.81050000     -34.63450000     -68.62520000
C      -47.93920000     -35.79670000     -69.46400000
H      -48.26910000     -36.38630000     -71.55920000
H      -48.75810000     -32.22700000     -70.71570000
H      -47.33240000     -34.83290000     -67.59800000
H      -47.87840000     -36.74960000     -68.89420000
C      -47.65470000     -32.15080000     -68.21950000
H      -47.02530000     -32.53770000     -67.33310000
H      -48.56650000     -31.56880000     -67.89260000
C      -48.68590000     -34.11710000     -72.80090000
H      -48.36430000     -34.98090000     -73.26030000
H      -49.73150000     -33.76130000     -72.98330000
S      -46.80420000     -30.67400000     -69.07300000
S      -47.71930000     -32.71060000     -73.58200000
C      -45.09020000     -31.31680000     -69.44900000
H      -44.42880000     -30.47740000     -69.27920000
H      -44.75980000     -32.07930000     -68.69140000
C      -45.96570000     -33.24590000     -73.73950000
H      -45.30150000     -32.35160000     -73.46130000
H      -45.77130000     -33.50190000     -74.76810000
C      -45.62790000     -34.37230000     -72.82370000
H      -45.97230000     -34.30930000     -71.87130000
H      -46.04500000     -35.31180000     -73.19240000
C      -44.83610000     -31.74060000     -70.87700000
H      -44.94440000     -30.80410000     -71.58470000
H      -45.63910000     -32.38900000     -71.25400000
C      -43.54060000     -32.37800000     -71.17070000
C      -42.30210000     -31.85470000     -70.84060000
C      -43.28310000     -33.61490000     -71.94300000
H      -42.13510000     -30.96360000     -70.31220000
C      -41.96870000     -33.99190000     -72.02020000
C      -44.08780000     -34.54600000     -72.71150000
C      -43.33900000     -35.61180000     -73.17180000
S      -40.88540000     -32.83140000     -71.23770000
S      -41.58610000     -35.47600000     -72.90200000
H      -43.80670000     -36.48370000     -73.66120000
