40
Properties=species:S:1:pos:R:3 #=T CELL(abcABC):=T 1.889726e+02=T 90.00000=T Traj:=T positionsangstrom=T Step:=T 0=T Bead:=T pbc="F F F"
C      -48.50570000     -35.68230000     -70.67300000
C      -48.51630000     -34.39270000     -71.22680000
C      -48.12650000     -33.26850000     -70.50490000
C      -47.80620000     -33.35440000     -69.11680000
C      -47.75180000     -34.68210000     -68.58200000
C      -48.04410000     -35.75720000     -69.37140000
H      -48.71000000     -36.49890000     -71.35650000
H      -48.06280000     -32.23890000     -70.93320000
H      -47.48440000     -34.71870000     -67.52610000
H      -47.92410000     -36.72200000     -68.89670000
C      -47.50190000     -32.20140000     -68.17830000
H      -46.84160000     -32.48870000     -67.32060000
H      -48.51080000     -31.93430000     -67.78580000
C      -48.79030000     -34.24960000     -72.71950000
H      -48.52860000     -35.25210000     -73.17150000
H      -49.81180000     -34.15120000     -72.96480000
S      -46.66990000     -30.80280000     -69.03440000
S      -47.89350000     -32.86470000     -73.54480000
C      -45.03010000     -31.48000000     -69.54960000
H      -44.30040000     -30.75480000     -69.15560000
H      -44.87430000     -32.48010000     -69.15670000
C      -46.06090000     -33.50300000     -73.81330000
H      -45.51620000     -32.57290000     -73.91800000
H      -45.92690000     -33.94180000     -74.84750000
C      -45.62880000     -34.42670000     -72.78120000
H      -46.09970000     -34.31210000     -71.76560000
H      -45.95880000     -35.43500000     -73.03190000
C      -44.78970000     -31.51850000     -71.05340000
H      -44.72260000     -30.47200000     -71.49810000
H      -45.59130000     -32.09580000     -71.56080000
C      -43.49510000     -32.20640000     -71.33360000
C      -42.29440000     -31.61720000     -70.96760000
C      -43.24520000     -33.43240000     -72.05490000
H      -42.31760000     -30.66630000     -70.41350000
C      -41.89010000     -33.81370000     -72.05460000
C      -44.08420000     -34.42890000     -72.69930000
C      -43.37140000     -35.48870000     -73.19930000
S      -40.90680000     -32.69040000     -71.20410000
S      -41.62590000     -35.36450000     -72.86090000
H      -43.75520000     -36.31970000     -73.73510000
