40
Properties=species:S:1:pos:R:3 #=T CELL(abcABC):=T 1.889726e+02=T 90.00000=T Traj:=T positionsangstrom=T Step:=T 0=T Bead:=T pbc="F F F"
C      -48.53470000     -35.41260000     -70.88360000
C      -48.50940000     -34.11680000     -71.41020000
C      -48.21250000     -33.08340000     -70.54520000
C      -47.91030000     -33.26570000     -69.18900000
C      -47.97690000     -34.59960000     -68.66140000
C      -48.33850000     -35.67980000     -69.50370000
H      -48.85870000     -36.31370000     -71.44700000
H      -48.25700000     -32.01580000     -70.96280000
H      -47.79280000     -34.68400000     -67.66190000
H      -48.37910000     -36.72140000     -69.21040000
C      -47.70200000     -32.06480000     -68.35890000
H      -47.32240000     -32.33830000     -67.30130000
H      -48.69530000     -31.65730000     -68.06410000
C      -48.73130000     -33.82960000     -72.99630000
H      -48.62880000     -34.81190000     -73.52720000
H      -49.66490000     -33.34870000     -73.03340000
S      -46.65500000     -30.68910000     -68.92880000
S      -47.59110000     -32.60620000     -73.83960000
C      -45.09780000     -31.70840000     -69.18540000
H      -44.22780000     -31.28790000     -68.56630000
H      -45.25820000     -32.67510000     -68.72990000
C      -45.90670000     -33.42600000     -74.01470000
H      -45.25360000     -32.64030000     -74.05290000
H      -45.95210000     -33.91320000     -75.00630000
C      -45.55930000     -34.54990000     -72.94570000
H      -46.01210000     -34.25390000     -71.98110000
H      -45.95660000     -35.45920000     -73.33820000
C      -44.82970000     -31.87400000     -70.76050000
H      -44.80000000     -30.90960000     -71.23680000
H      -45.64140000     -32.43430000     -71.24680000
C      -43.55090000     -32.51580000     -71.07900000
C      -42.34880000     -31.97980000     -70.56190000
C      -43.29840000     -33.70930000     -71.85420000
H      -42.24760000     -31.02260000     -70.04340000
C      -41.92920000     -34.01740000     -71.85820000
C      -44.08480000     -34.67200000     -72.64780000
C      -43.24680000     -35.60040000     -73.26570000
S      -40.94740000     -32.81920000     -70.97300000
S      -41.54290000     -35.39160000     -72.94790000
H      -43.48310000     -36.27900000     -74.07080000
