40
Properties=species:S:1:pos:R:3 #=T CELL(abcABC):=T 1.889726e+02=T 90.00000=T Traj:=T positionsangstrom=T Step:=T 0=T Bead:=T pbc="F F F"
C      -42.55730000     -34.72220000     -69.73430000
C      -42.74020000     -35.50530000     -70.92510000
C      -42.51900000     -34.87180000     -72.14590000
C      -41.95710000     -33.58520000     -72.23130000
C      -41.70520000     -32.93670000     -71.03450000
C      -42.02470000     -33.43740000     -69.76230000
H      -42.88840000     -35.02690000     -68.72670000
H      -42.59570000     -35.56380000     -73.02880000
H      -41.37530000     -31.86830000     -71.10580000
H      -41.86140000     -32.86140000     -68.80870000
C      -41.73810000     -33.02620000     -73.61890000
H      -41.03620000     -33.80410000     -74.19960000
H      -41.19980000     -32.03280000     -73.60450000
C      -43.46740000     -36.87220000     -70.91450000
H      -42.92550000     -37.56620000     -71.65620000
H      -43.45750000     -37.31790000     -69.93340000
S      -43.26830000     -32.66340000     -74.57800000
S      -45.14620000     -36.73630000     -71.62320000
C      -44.28290000     -31.82320000     -73.27630000
H      -43.67720000     -31.41410000     -72.49480000
H      -44.76500000     -30.94880000     -73.80620000
C      -46.05180000     -35.52780000     -70.53950000
H      -45.28540000     -34.66110000     -70.40550000
H      -46.15820000     -36.07960000     -69.62470000
C      -47.41630000     -35.11440000     -71.23410000
H      -47.35500000     -35.19590000     -72.34500000
H      -48.04400000     -36.00380000     -71.10220000
C      -45.40420000     -32.72840000     -72.70640000
H      -45.02480000     -33.63090000     -72.10670000
H      -45.88150000     -33.31070000     -73.48410000
C      -46.25350000     -31.94910000     -71.65580000
C      -46.09610000     -30.63620000     -71.39080000
C      -47.40480000     -32.51380000     -70.86400000
H      -45.40740000     -29.98710000     -71.87810000
C      -48.09250000     -31.61010000     -70.00520000
C      -47.97020000     -33.85470000     -70.62680000
C      -49.04850000     -33.90480000     -69.77610000
S      -47.25060000     -30.02970000     -70.17790000
S      -49.39250000     -32.34340000     -69.03250000
H      -49.62890000     -34.71290000     -69.40410000
