40
Properties=species:S:1:pos:R:3 #=T CELL(abcABC):=T 1.889726e+02=T 90.00000=T Traj:=T positionsangstrom=T Step:=T 0=T Bead:=T pbc="F F F"
C      -48.65630000     -35.50980000     -70.32470000
C      -48.72320000     -34.28220000     -71.00910000
C      -48.33990000     -33.13120000     -70.30560000
C      -47.80500000     -33.19940000     -68.98900000
C      -47.59160000     -34.46230000     -68.40410000
C      -48.00820000     -35.59280000     -69.08080000
H      -48.92260000     -36.38100000     -70.90420000
H      -48.34310000     -32.18180000     -70.77860000
H      -47.18960000     -34.56650000     -67.36160000
H      -47.81810000     -36.47700000     -68.50840000
C      -47.32800000     -32.06180000     -68.11030000
H      -46.84080000     -32.53510000     -67.23210000
H      -48.14480000     -31.58670000     -67.71530000
C      -49.31360000     -34.15560000     -72.44010000
H      -49.77710000     -35.01870000     -72.87380000
H      -50.06960000     -33.31550000     -72.44540000
S      -46.30800000     -30.76990000     -68.84230000
S      -47.94150000     -33.52940000     -73.52980000
C      -44.91320000     -31.75510000     -69.67390000
H      -44.06330000     -31.60590000     -69.01230000
H      -45.02200000     -32.86070000     -69.65890000
C      -46.50490000     -34.62660000     -73.33250000
H      -45.88910000     -34.23970000     -74.13500000
H      -46.68790000     -35.68860000     -73.47100000
C      -45.66380000     -34.50780000     -71.98260000
H      -45.92510000     -33.59420000     -71.43730000
H      -45.80680000     -35.41100000     -71.33260000
C      -44.58040000     -31.24720000     -71.06010000
H      -44.33980000     -30.13390000     -71.08500000
H      -45.42380000     -31.53650000     -71.80200000
C      -43.31790000     -31.94870000     -71.54700000
C      -42.11320000     -31.31490000     -71.55580000
C      -43.18610000     -33.33120000     -72.06170000
H      -41.91220000     -30.29740000     -71.07860000
C      -41.91200000     -33.70240000     -72.44660000
C      -44.13380000     -34.47010000     -72.24900000
C      -43.50810000     -35.54570000     -72.89100000
S      -40.78210000     -32.38010000     -72.06580000
S      -41.77620000     -35.26410000     -73.26750000
H      -43.99470000     -36.44210000     -73.22400000
