40
Properties=species:S:1:pos:R:3 #=T CELL(abcABC):=T 1.889726e+02=T 90.00000=T Traj:=T positionsangstrom=T Step:=T 0=T Bead:=T pbc="F F F"
C      -48.47620000     -35.74560000     -70.03400000
C      -48.65160000     -34.54470000     -70.73680000
C      -48.31480000     -33.34940000     -70.03010000
C      -47.65040000     -33.36730000     -68.76700000
C      -47.45280000     -34.59140000     -68.12410000
C      -47.93530000     -35.78620000     -68.73770000
H      -48.75800000     -36.72140000     -70.49270000
H      -48.46950000     -32.46040000     -70.57190000
H      -46.96350000     -34.60830000     -67.18280000
H      -47.86240000     -36.79730000     -68.34050000
C      -47.26540000     -32.07480000     -67.97990000
H      -46.67440000     -32.48310000     -67.06490000
H      -48.20000000     -31.58960000     -67.56290000
C      -49.24060000     -34.40490000     -72.17720000
H      -49.47230000     -35.41210000     -72.55360000
H      -50.12700000     -33.87070000     -72.07600000
S      -46.30790000     -30.85170000     -68.99110000
S      -48.17330000     -33.38970000     -73.29290000
C      -44.98350000     -31.85430000     -69.80800000
H      -44.12820000     -32.08430000     -69.04290000
H      -45.46860000     -32.91860000     -69.96930000
C      -46.45460000     -34.12550000     -73.52200000
H      -45.92410000     -33.43910000     -74.20310000
H      -46.45590000     -35.09390000     -73.99120000
C      -45.71170000     -34.22630000     -72.23370000
H      -46.19750000     -33.44530000     -71.59860000
H      -46.03700000     -35.17870000     -71.74500000
C      -44.47670000     -31.23950000     -71.11780000
H      -44.21380000     -30.22760000     -70.90250000
H      -45.24580000     -31.18320000     -71.86210000
C      -43.20870000     -31.85660000     -71.69660000
C      -41.98180000     -31.25300000     -71.78140000
C      -43.18310000     -33.27610000     -72.17880000
H      -41.83840000     -30.15470000     -71.61490000
C      -41.91560000     -33.63100000     -72.51260000
C      -44.20460000     -34.29360000     -72.37580000
C      -43.66790000     -35.39630000     -73.05970000
S      -40.74010000     -32.36640000     -72.31010000
S      -41.89020000     -35.27240000     -73.32620000
H      -44.28790000     -36.16820000     -73.48070000
