40
Properties=species:S:1:pos:R:3 #=T CELL(abcABC):=T 1.889726e+02=T 90.00000=T Traj:=T positionsangstrom=T Step:=T 0=T Bead:=T pbc="F F F"
C      -48.56720000     -35.56770000     -70.29410000
C      -48.60800000     -34.30800000     -70.89030000
C      -48.10080000     -33.22490000     -70.11590000
C      -47.73710000     -33.31560000     -68.78210000
C      -47.77590000     -34.56820000     -68.10240000
C      -48.23710000     -35.65660000     -68.91690000
H      -49.01510000     -36.48200000     -70.77910000
H      -48.08500000     -32.24220000     -70.52290000
H      -47.39640000     -34.67320000     -67.12250000
H      -48.19710000     -36.66990000     -68.50680000
C      -47.33050000     -32.07210000     -68.01950000
H      -46.80080000     -32.32840000     -67.09700000
H      -48.27790000     -31.56000000     -67.78640000
C      -49.13310000     -34.25240000     -72.34860000
H      -49.43000000     -35.27060000     -72.73790000
H      -49.97810000     -33.63810000     -72.47150000
S      -46.38420000     -30.77430000     -69.00560000
S      -47.95080000     -33.47020000     -73.51590000
C      -44.82210000     -31.65030000     -69.43430000
H      -44.00270000     -31.36840000     -68.78200000
H      -45.02050000     -32.68770000     -69.35590000
C      -46.42300000     -34.58170000     -73.38880000
H      -45.77360000     -34.31700000     -74.27300000
H      -46.76490000     -35.61020000     -73.60320000
C      -45.68720000     -34.37090000     -72.03820000
H      -46.00840000     -33.38550000     -71.60620000
H      -46.07220000     -35.09870000     -71.35660000
C      -44.47030000     -31.26320000     -70.93180000
H      -44.49100000     -30.18480000     -71.04750000
H      -45.26900000     -31.59210000     -71.51010000
C      -43.21580000     -31.99600000     -71.50300000
C      -41.98710000     -31.39410000     -71.50750000
C      -43.27910000     -33.29230000     -72.13510000
H      -41.67980000     -30.52110000     -70.93070000
C      -41.99460000     -33.62680000     -72.63150000
C      -44.21070000     -34.37970000     -72.35630000
C      -43.59700000     -35.44570000     -73.02210000
S      -40.79660000     -32.39860000     -72.33110000
S      -41.82950000     -35.24890000     -73.29030000
H      -44.06590000     -36.43510000     -73.11170000
