40
Properties=species:S:1:pos:R:3 #=T CELL(abcABC):=T 1.889726e+02=T 90.00000=T Traj:=T positionsangstrom=T Step:=T 0=T Bead:=T pbc="F F F"
C      -42.50850000     -34.90260000     -69.89760000
C      -42.77920000     -35.59930000     -71.07680000
C      -42.47250000     -34.93920000     -72.20700000
C      -41.98630000     -33.63290000     -72.24550000
C      -41.81000000     -32.93820000     -71.05500000
C      -42.04480000     -33.60290000     -69.88240000
H      -42.69270000     -35.40670000     -68.94920000
H      -42.82160000     -35.42830000     -73.14220000
H      -41.48140000     -31.87600000     -70.91550000
H      -41.68080000     -33.14820000     -68.92400000
C      -41.76440000     -32.90120000     -73.53230000
H      -41.12310000     -33.57950000     -74.10070000
H      -41.31280000     -31.94270000     -73.45710000
C      -43.40570000     -36.93000000     -71.01670000
H      -42.91190000     -37.67840000     -71.61870000
H      -43.60380000     -37.37920000     -70.04320000
S      -43.40680000     -32.67400000     -74.38870000
S      -45.09510000     -36.71060000     -71.88180000
C      -44.36200000     -31.75760000     -73.16580000
H      -43.71640000     -31.28270000     -72.40670000
H      -44.87000000     -30.95720000     -73.68530000
C      -45.92380000     -35.72590000     -70.56480000
H      -45.25950000     -34.89150000     -70.34070000
H      -45.96570000     -36.19430000     -69.59270000
C      -47.23820000     -35.10310000     -71.14110000
H      -47.10860000     -34.81960000     -72.15430000
H      -48.13070000     -35.74450000     -71.12820000
C      -45.45220000     -32.64120000     -72.54800000
H      -44.95580000     -33.38240000     -71.95650000
H      -46.22380000     -33.06280000     -73.20680000
C      -46.17290000     -31.89120000     -71.45570000
C      -46.23220000     -30.54250000     -71.27510000
C      -47.20010000     -32.55260000     -70.69820000
H      -45.55570000     -29.90520000     -71.77140000
C      -47.95710000     -31.62830000     -69.93390000
C      -47.70280000     -33.86170000     -70.43600000
C      -48.85820000     -33.92490000     -69.64540000
S      -47.50090000     -29.96280000     -70.22560000
S      -49.37340000     -32.26940000     -69.19710000
H      -49.25070000     -34.83920000     -69.27960000
