40
Properties=species:S:1:pos:R:3 #=T CELL(abcABC):=T 1.889726e+02=T 90.00000=T Traj:=T positionsangstrom=T Step:=T 0=T Bead:=T pbc="F F F"
C      -47.62440000     -33.45280000     -68.36110000
C      -46.54120000     -32.57090000     -68.47020000
C      -45.25650000     -33.04380000     -68.24040000
C      -45.03460000     -34.41120000     -68.02100000
C      -46.10090000     -35.31100000     -68.02080000
C      -47.40700000     -34.82670000     -68.06360000
H      -48.57260000     -33.01010000     -68.49370000
H      -44.39990000     -32.41180000     -68.18320000
H      -45.91310000     -36.38300000     -67.76900000
H      -48.24970000     -35.42310000     -67.84820000
C      -43.65730000     -34.99570000     -67.85180000
H      -43.52890000     -35.66490000     -67.01560000
H      -42.98570000     -34.22000000     -67.71530000
C      -46.77420000     -31.01940000     -68.55100000
H      -47.23880000     -30.79170000     -67.60710000
H      -45.82160000     -30.46840000     -68.62610000
S      -43.13330000     -36.09330000     -69.30250000
S      -47.81320000     -30.42720000     -69.90880000
C      -43.93920000     -35.26110000     -70.69420000
H      -43.76080000     -35.96720000     -71.49440000
H      -44.95480000     -35.29380000     -70.33260000
C      -46.83210000     -30.72640000     -71.42760000
H      -45.85450000     -30.24720000     -71.36760000
H      -47.35950000     -30.27550000     -72.29350000
C      -46.58640000     -32.28340000     -71.67550000
H      -45.91190000     -32.75970000     -70.99300000
H      -47.51560000     -32.74140000     -71.49090000
C      -43.39000000     -33.86230000     -71.16740000
H      -42.32780000     -33.85920000     -70.95640000
H      -43.86540000     -33.04240000     -70.64890000
C      -43.61700000     -33.68610000     -72.69120000
C      -42.68090000     -34.17860000     -73.58190000
C      -44.77010000     -33.14470000     -73.39930000
H      -41.76440000     -34.72210000     -73.46140000
C      -44.64340000     -33.29990000     -74.77040000
C      -46.08280000     -32.57920000     -73.03940000
C      -46.89980000     -32.39980000     -74.13890000
S      -43.19270000     -34.14970000     -75.26830000
S      -46.14990000     -32.84310000     -75.63750000
H      -47.87820000     -31.83470000     -74.17420000
