40
Properties=species:S:1:pos:R:3 #=T CELL(abcABC):=T 1.889726e+02=T 90.00000=T Traj:=T positionsangstrom=T Step:=T 0=T Bead:=T pbc="F F F"
C      -47.75030000     -33.19660000     -67.78910000
C      -46.66220000     -32.32620000     -68.12810000
C      -45.36520000     -32.93770000     -68.28590000
C      -45.28320000     -34.31220000     -68.05960000
C      -46.38610000     -35.14740000     -67.70410000
C      -47.63500000     -34.55230000     -67.60090000
H      -48.80130000     -32.83150000     -67.77130000
H      -44.44950000     -32.37060000     -68.33410000
H      -46.27070000     -36.18170000     -67.38730000
H      -48.44890000     -35.11880000     -67.26220000
C      -43.90280000     -34.90670000     -68.09080000
H      -43.45030000     -35.39800000     -67.21310000
H      -43.12800000     -34.08390000     -68.32790000
C      -46.87730000     -30.84660000     -68.28370000
H      -47.86800000     -30.70700000     -67.81160000
H      -46.09540000     -30.23420000     -67.87830000
S      -43.73160000     -36.23630000     -69.43640000
S      -47.10480000     -30.33090000     -70.09000000
C      -44.32500000     -35.37570000     -70.87800000
H      -44.22760000     -36.19080000     -71.63870000
H      -45.37790000     -35.05270000     -70.77760000
C      -46.02300000     -31.45860000     -71.05790000
H      -45.33980000     -31.82450000     -70.30890000
H      -45.39970000     -30.81970000     -71.73600000
C      -46.72030000     -32.61520000     -71.78890000
H      -46.65070000     -33.57940000     -71.21750000
H      -47.80480000     -32.39790000     -71.83280000
C      -43.41240000     -34.18590000     -71.29360000
H      -42.39650000     -34.40360000     -71.03830000
H      -43.73180000     -33.32970000     -70.73820000
C      -43.63240000     -33.90520000     -72.77240000
C      -42.55880000     -34.14940000     -73.60200000
C      -44.80300000     -33.33650000     -73.45720000
H      -41.70100000     -34.73610000     -73.30010000
C      -44.59120000     -33.27780000     -74.84990000
C      -46.14810000     -32.87890000     -73.16210000
C      -46.90390000     -32.56510000     -74.26300000
S      -42.95960000     -33.73940000     -75.28290000
S      -46.03090000     -32.79290000     -75.77010000
H      -47.85540000     -32.05080000     -74.27930000
