40
Properties=species:S:1:pos:R:3 #=T CELL(abcABC):=T 1.889726e+02=T 90.00000=T Traj:=T positionsangstrom=T Step:=T 0=T Bead:=T pbc="F F F"
C      -47.75340000     -33.19920000     -67.89830000
C      -46.60040000     -32.36370000     -68.05200000
C      -45.34540000     -32.93240000     -68.10180000
C      -45.26810000     -34.35820000     -68.00290000
C      -46.40710000     -35.16280000     -67.69330000
C      -47.64940000     -34.55270000     -67.72080000
H      -48.71950000     -32.81030000     -67.70050000
H      -44.51880000     -32.32350000     -68.31860000
H      -46.40610000     -36.22510000     -67.65020000
H      -48.55890000     -35.17980000     -67.60140000
C      -43.90810000     -34.92240000     -68.15110000
H      -43.60990000     -35.40950000     -67.27360000
H      -43.15440000     -34.12850000     -68.31390000
C      -46.81660000     -30.92000000     -68.30250000
H      -47.59090000     -30.43150000     -67.72630000
H      -45.85720000     -30.43020000     -68.02190000
S      -43.79240000     -36.22740000     -69.37730000
S      -47.13730000     -30.43280000     -70.10600000
C      -44.37050000     -35.40650000     -70.94430000
H      -44.09780000     -36.06530000     -71.73330000
H      -45.45000000     -35.24410000     -70.84330000
C      -46.03970000     -31.41260000     -71.21480000
H      -45.05190000     -31.51020000     -70.72660000
H      -45.85850000     -30.81680000     -72.08290000
C      -46.58770000     -32.71430000     -71.75760000
H      -46.47670000     -33.55410000     -71.09570000
H      -47.70370000     -32.73190000     -71.78480000
C      -43.61230000     -34.09500000     -71.21060000
H      -42.57320000     -34.03140000     -70.71340000
H      -44.18250000     -33.26240000     -70.77520000
C      -43.60080000     -33.82680000     -72.71090000
C      -42.55360000     -33.95450000     -73.61000000
C      -44.77950000     -33.33910000     -73.46380000
H      -41.56990000     -34.23860000     -73.39790000
C      -44.56650000     -33.23800000     -74.81980000
C      -46.12840000     -32.97680000     -73.16040000
C      -46.85810000     -32.69050000     -74.27540000
S      -42.97520000     -33.66570000     -75.29180000
S      -45.96370000     -32.75810000     -75.76050000
H      -47.89020000     -32.31470000     -74.21180000
