40
Properties=species:S:1:pos:R:3 #=T CELL(abcABC):=T 1.889726e+02=T 90.00000=T Traj:=T positionsangstrom=T Step:=T 0=T Bead:=T pbc="F F F"
C      -47.61090000     -33.44210000     -68.23170000
C      -46.50070000     -32.57840000     -68.35880000
C      -45.24880000     -33.08290000     -68.12560000
C      -45.06560000     -34.47300000     -67.94170000
C      -46.13040000     -35.37140000     -67.92610000
C      -47.47120000     -34.81280000     -67.97890000
H      -48.60540000     -32.98660000     -68.37360000
H      -44.44460000     -32.33300000     -68.12360000
H      -45.93380000     -36.45890000     -67.95000000
H      -48.29620000     -35.44090000     -67.84550000
C      -43.64240000     -34.97110000     -67.71380000
H      -43.72000000     -35.73980000     -66.87400000
H      -43.02120000     -34.12620000     -67.40590000
C      -46.65620000     -31.08800000     -68.51050000
H      -46.86860000     -30.49640000     -67.56080000
H      -45.72000000     -30.72210000     -68.81820000
S      -42.86040000     -35.75540000     -69.27150000
S      -47.85940000     -30.63790000     -69.84050000
C      -43.96790000     -35.26110000     -70.71810000
H      -43.89630000     -36.01350000     -71.58140000
H      -44.98720000     -35.23240000     -70.38540000
C      -46.81460000     -30.82200000     -71.34600000
H      -45.92240000     -30.24230000     -71.13830000
H      -47.33480000     -30.36190000     -72.21820000
C      -46.51430000     -32.31450000     -71.71130000
H      -45.77860000     -32.69500000     -70.92950000
H      -47.38920000     -32.93020000     -71.51380000
C      -43.52770000     -33.83780000     -71.27220000
H      -42.50320000     -33.68510000     -70.94630000
H      -44.11190000     -33.04750000     -70.67410000
C      -43.74310000     -33.76620000     -72.76310000
C      -42.78180000     -34.25940000     -73.60440000
C      -44.94390000     -33.33480000     -73.48410000
H      -41.87150000     -34.68190000     -73.29390000
C      -44.79410000     -33.57320000     -74.84960000
C      -46.14770000     -32.56670000     -73.11800000
C      -46.82670000     -32.17870000     -74.26730000
S      -43.29770000     -34.14960000     -75.34540000
S      -46.05770000     -32.72590000     -75.76850000
H      -47.74600000     -31.58360000     -74.28890000
