40
Properties=species:S:1:pos:R:3 #=T CELL(abcABC):=T 1.889726e+02=T 90.00000=T Traj:=T positionsangstrom=T Step:=T 0=T Bead:=T pbc="F F F"
C      -47.63160000     -33.27980000     -68.44900000
C      -46.50440000     -32.43770000     -68.41970000
C      -45.25100000     -33.05150000     -68.33220000
C      -45.10210000     -34.40940000     -68.09810000
C      -46.23610000     -35.23790000     -67.93100000
C      -47.47620000     -34.69180000     -68.22910000
H      -48.63760000     -32.94960000     -68.68480000
H      -44.42340000     -32.36620000     -68.33940000
H      -46.00500000     -36.26440000     -67.82830000
H      -48.30550000     -35.41270000     -68.34810000
C      -43.70330000     -34.91320000     -68.07310000
H      -43.47090000     -35.58140000     -67.23790000
H      -42.94880000     -34.04800000     -68.25850000
C      -46.60800000     -30.96070000     -68.55150000
H      -47.16120000     -30.62510000     -67.69220000
H      -45.56840000     -30.46220000     -68.55600000
S      -43.38840000     -36.19260000     -69.38640000
S      -47.68830000     -30.37420000     -69.87610000
C      -43.92530000     -35.42700000     -70.96730000
H      -43.76070000     -36.01700000     -71.81870000
H      -45.05880000     -35.41250000     -70.97630000
C      -46.89170000     -30.84840000     -71.47770000
H      -45.99640000     -30.15060000     -71.67250000
H      -47.64290000     -30.62820000     -72.17170000
C      -46.57120000     -32.37720000     -71.53450000
H      -45.75650000     -32.58990000     -70.84210000
H      -47.56160000     -32.91800000     -71.31220000
C      -43.42550000     -34.05080000     -71.13210000
H      -42.30550000     -33.96760000     -70.89420000
H      -43.93740000     -33.37270000     -70.54560000
C      -43.58180000     -33.77840000     -72.61650000
C      -42.63410000     -34.08830000     -73.54890000
C      -44.79260000     -33.29300000     -73.26960000
H      -41.55160000     -34.36760000     -73.32540000
C      -44.64360000     -33.33160000     -74.64630000
C      -46.12020000     -32.71250000     -72.90470000
C      -46.88610000     -32.50000000     -74.03650000
S      -43.08980000     -33.89330000     -75.24270000
S      -46.06430000     -32.92290000     -75.52700000
H      -47.91620000     -32.12350000     -74.04660000
