40
Properties=species:S:1:pos:R:3 #=T CELL(abcABC):=T 1.889726e+02=T 90.00000=T Traj:=T positionsangstrom=T Step:=T 0=T Bead:=T pbc="F F F"
C      -47.35630000     -33.43510000     -67.79140000
C      -46.30540000     -32.56820000     -68.09590000
C      -45.04220000     -33.17200000     -68.17000000
C      -44.80950000     -34.53800000     -67.89710000
C      -45.88760000     -35.35800000     -67.45620000
C      -47.14810000     -34.78820000     -67.48740000
H      -48.38170000     -33.05460000     -67.77110000
H      -44.21990000     -32.51450000     -68.44060000
H      -45.67530000     -36.37360000     -67.31260000
H      -48.04830000     -35.23850000     -67.35260000
C      -43.43670000     -35.16170000     -68.17120000
H      -43.30920000     -35.82500000     -67.33600000
H      -42.52990000     -34.41080000     -68.18850000
C      -46.55370000     -31.10200000     -68.28720000
H      -47.02350000     -30.64170000     -67.38040000
H      -45.59520000     -30.57740000     -68.29820000
S      -43.33790000     -36.25480000     -69.65250000
S      -47.54690000     -30.57530000     -69.75520000
C      -44.27070000     -35.46520000     -71.03080000
H      -44.21230000     -36.12970000     -71.90190000
H      -45.31670000     -35.26650000     -70.65530000
C      -46.56610000     -31.04240000     -71.21890000
H      -45.50460000     -30.80550000     -71.00820000
H      -46.91390000     -30.24890000     -71.84720000
C      -46.81500000     -32.45840000     -71.68910000
H      -46.32850000     -33.20160000     -71.05120000
H      -47.89030000     -32.71890000     -71.63790000
C      -43.60870000     -34.12460000     -71.41900000
H      -42.47570000     -34.15850000     -71.17810000
H      -43.99970000     -33.28240000     -70.83650000
C      -43.82800000     -33.83720000     -72.91370000
C      -42.87980000     -34.19350000     -73.86060000
C      -44.93980000     -33.19400000     -73.49460000
H      -41.90960000     -34.40700000     -73.51170000
C      -44.85220000     -33.14860000     -74.88340000
C      -46.19480000     -32.65710000     -73.06660000
C      -46.97060000     -32.13280000     -74.10070000
S      -43.30540000     -33.79010000     -75.46140000
S      -46.25510000     -32.34560000     -75.69460000
H      -48.03860000     -31.89750000     -74.04140000
