40
Properties=species:S:1:pos:R:3 #=T CELL(abcABC):=T 1.889726e+02=T 90.00000=T Traj:=T positionsangstrom=T Step:=T 0=T Bead:=T pbc="F F F"
C      -47.18200000     -30.24580000     -72.99710000
C      -46.31480000     -30.09700000     -71.88020000
C      -44.93750000     -30.41510000     -72.08960000
C      -44.52960000     -30.96350000     -73.31270000
C      -45.44170000     -30.94420000     -74.41430000
C      -46.74490000     -30.57280000     -74.27320000
H      -48.20770000     -29.97800000     -72.83720000
H      -44.43440000     -30.43910000     -71.13600000
H      -45.10470000     -31.30110000     -75.36510000
H      -47.34010000     -30.58850000     -75.19130000
C      -43.09360000     -31.29320000     -73.58000000
H      -42.48950000     -31.34110000     -72.68870000
H      -42.61150000     -30.53270000     -74.27440000
C      -47.01130000     -29.84930000     -70.52900000
H      -47.26510000     -28.76800000     -70.51450000
H      -48.00480000     -30.38300000     -70.52080000
S      -42.80060000     -32.97090000     -74.41530000
S      -45.98970000     -30.20360000     -69.05660000
C      -43.41280000     -34.31030000     -73.29190000
H      -43.33710000     -35.27100000     -73.75970000
H      -42.73810000     -34.42250000     -72.37660000
C      -45.96810000     -32.01680000     -68.67400000
H      -47.02330000     -32.33770000     -68.28800000
H      -45.26120000     -32.12860000     -67.80390000
C      -45.59050000     -32.82370000     -69.84140000
H      -46.34960000     -32.68040000     -70.58060000
H      -44.57010000     -32.56940000     -70.25490000
C      -44.84830000     -34.30690000     -72.76900000
H      -45.49690000     -34.35080000     -73.68260000
H      -45.07590000     -33.45080000     -72.21910000
C      -45.11850000     -35.46860000     -71.90450000
C      -45.35550000     -36.78660000     -72.31200000
C      -45.25780000     -35.37630000     -70.38210000
H      -45.37020000     -37.24490000     -73.33440000
C      -45.53150000     -36.64830000     -69.86290000
C      -45.54150000     -34.32460000     -69.42760000
C      -45.91530000     -34.79130000     -68.17310000
S      -45.62770000     -37.96960000     -71.01760000
S      -45.92350000     -36.58310000     -68.06060000
H      -46.06740000     -34.26660000     -67.25950000
