40
Properties=species:S:1:pos:R:3 #=T CELL(abcABC):=T 1.889726e+02=T 90.00000=T Traj:=T positionsangstrom=T Step:=T 0=T Bead:=T pbc="F F F"
C      -47.38230000     -33.40600000     -67.61500000
C      -46.31500000     -32.55220000     -67.96700000
C      -45.08220000     -33.17920000     -68.22420000
C      -44.92770000     -34.56480000     -67.93790000
C      -45.94770000     -35.37060000     -67.62270000
C      -47.22800000     -34.76990000     -67.47180000
H      -48.40710000     -32.95650000     -67.51620000
H      -44.31210000     -32.60600000     -68.59280000
H      -45.77960000     -36.41280000     -67.45150000
H      -48.06810000     -35.28570000     -67.32110000
C      -43.53230000     -35.03810000     -68.16920000
H      -43.03220000     -35.53830000     -67.33420000
H      -42.96420000     -34.13300000     -68.24140000
C      -46.48290000     -31.07300000     -68.16060000
H      -47.07040000     -30.57530000     -67.37500000
H      -45.52750000     -30.59590000     -68.30280000
S      -43.41210000     -36.23290000     -69.54150000
S      -47.52600000     -30.66440000     -69.64520000
C      -44.22300000     -35.42960000     -70.97790000
H      -44.26330000     -36.20860000     -71.65910000
H      -45.31080000     -35.29150000     -70.76640000
C      -46.37830000     -30.95340000     -71.06400000
H      -45.32430000     -30.79730000     -70.84150000
H      -46.70290000     -30.33940000     -71.89930000
C      -46.50790000     -32.44400000     -71.65660000
H      -45.76740000     -33.03100000     -71.13670000
H      -47.49930000     -32.91910000     -71.44940000
C      -43.47300000     -34.16790000     -71.49030000
H      -42.47160000     -34.33800000     -71.37200000
H      -43.75770000     -33.32940000     -70.83360000
C      -43.77080000     -33.84170000     -72.97940000
C      -42.85460000     -34.19190000     -73.95660000
C      -44.97440000     -33.22650000     -73.59880000
H      -41.89930000     -34.60670000     -73.67140000
C      -44.94570000     -33.27510000     -75.00690000
C      -46.14740000     -32.53340000     -73.10090000
C      -46.95400000     -32.04110000     -74.13910000
S      -43.45930000     -33.80570000     -75.61250000
S      -46.21570000     -32.38960000     -75.72890000
H      -47.90290000     -31.55260000     -73.86350000
