40
Properties=species:S:1:pos:R:3 #=T CELL(abcABC):=T 1.889726e+02=T 90.00000=T Traj:=T positionsangstrom=T Step:=T 0=T Bead:=T pbc="F F F"
C      -42.35710000     -35.04740000     -69.94980000
C      -42.75850000     -35.66090000     -71.18320000
C      -42.39810000     -34.91930000     -72.27520000
C      -41.94710000     -33.61590000     -72.19740000
C      -41.67780000     -33.02400000     -70.94120000
C      -41.73030000     -33.79150000     -69.85310000
H      -42.54930000     -35.61250000     -69.05020000
H      -42.55370000     -35.29520000     -73.26420000
H      -41.23960000     -32.07090000     -70.81470000
H      -41.64480000     -33.32840000     -68.87130000
C      -41.87880000     -32.80640000     -73.53050000
H      -41.20590000     -33.34290000     -74.18940000
H      -41.40970000     -31.79360000     -73.44890000
C      -43.38390000     -37.02920000     -71.33380000
H      -42.78640000     -37.66670000     -71.88820000
H      -43.48430000     -37.48760000     -70.27150000
S      -43.45490000     -32.65560000     -74.45690000
S      -45.13610000     -36.85090000     -71.94400000
C      -44.38800000     -31.64530000     -73.10320000
H      -43.74580000     -30.94910000     -72.54680000
H      -45.03200000     -31.10470000     -73.74050000
C      -45.92190000     -35.68450000     -70.71490000
H      -45.27510000     -34.85060000     -70.47340000
H      -46.31930000     -36.25730000     -69.83420000
C      -47.21500000     -35.06400000     -71.30010000
H      -46.93150000     -34.71870000     -72.33540000
H      -47.93930000     -35.88510000     -71.24970000
C      -45.24570000     -32.60580000     -72.17840000
H      -44.56360000     -33.09900000     -71.50130000
H      -45.52590000     -33.38000000     -72.89810000
C      -46.30180000     -31.82050000     -71.40700000
C      -46.35050000     -30.41290000     -71.33840000
C      -47.34780000     -32.44920000     -70.66270000
H      -45.66720000     -29.63000000     -71.56690000
C      -48.10540000     -31.54940000     -69.94490000
C      -47.72170000     -33.82080000     -70.45310000
C      -48.83530000     -33.90010000     -69.61430000
S      -47.61100000     -29.88590000     -70.18140000
S      -49.33100000     -32.31830000     -69.01200000
H      -49.45030000     -34.77960000     -69.45280000
