40
Properties=species:S:1:pos:R:3 #=T CELL(abcABC):=T 1.889726e+02=T 90.00000=T Traj:=T positionsangstrom=T Step:=T 0=T Bead:=T pbc="F F F"
C      -47.41140000     -33.42970000     -67.78720000
C      -46.29120000     -32.56910000     -68.14920000
C      -45.07460000     -33.21120000     -68.31360000
C      -44.82720000     -34.56850000     -68.07530000
C      -45.91460000     -35.34900000     -67.66650000
C      -47.19010000     -34.80230000     -67.56030000
H      -48.30300000     -32.97700000     -67.63920000
H      -44.18390000     -32.64720000     -68.62250000
H      -45.77190000     -36.38490000     -67.32420000
H      -48.02220000     -35.31970000     -67.09960000
C      -43.43670000     -35.17270000     -68.12320000
H      -43.23110000     -35.69170000     -67.20920000
H      -42.71630000     -34.43420000     -68.37260000
C      -46.28390000     -31.07640000     -68.33460000
H      -46.58970000     -30.58730000     -67.46840000
H      -45.28880000     -30.76740000     -68.69750000
S      -43.39900000     -36.31890000     -69.58840000
S      -47.52640000     -30.57530000     -69.65670000
C      -44.25800000     -35.35470000     -70.87900000
H      -44.34880000     -36.01310000     -71.75730000
H      -45.23520000     -35.17740000     -70.56000000
C      -46.61860000     -31.07280000     -71.22420000
H      -45.52230000     -30.86400000     -71.09460000
H      -46.89850000     -30.38670000     -72.03480000
C      -46.80890000     -32.49610000     -71.67440000
H      -46.35610000     -33.09350000     -70.84340000
H      -47.86650000     -32.69810000     -71.66330000
C      -43.63440000     -34.02820000     -71.37330000
H      -42.52590000     -34.14570000     -71.27640000
H      -43.89180000     -33.16340000     -70.80230000
C      -43.86740000     -33.79850000     -72.84360000
C      -42.90570000     -34.19750000     -73.72810000
C      -44.96030000     -33.10780000     -73.53120000
H      -42.15090000     -34.82580000     -73.32700000
C      -44.72700000     -32.91140000     -74.85340000
C      -46.32700000     -32.67600000     -73.07670000
C      -47.07620000     -32.44150000     -74.23470000
S      -43.30310000     -33.69790000     -75.41710000
S      -46.17530000     -32.40210000     -75.74330000
H      -48.03060000     -32.02990000     -74.28510000
