40
Properties=species:S:1:pos:R:3 #=T CELL(abcABC):=T 1.889726e+02=T 90.00000=T Traj:=T positionsangstrom=T Step:=T 0=T Bead:=T pbc="F F F"
C      -47.38290000     -33.23340000     -67.78480000
C      -46.22330000     -32.46700000     -67.99770000
C      -44.97390000     -33.12790000     -68.06680000
C      -44.84610000     -34.50340000     -68.01670000
C      -45.98540000     -35.22260000     -67.81910000
C      -47.21560000     -34.60970000     -67.62290000
H      -48.34770000     -32.82560000     -67.81230000
H      -44.10770000     -32.49960000     -68.31200000
H      -46.00070000     -36.32950000     -67.84270000
H      -48.00230000     -35.42380000     -67.53430000
C      -43.51460000     -35.24580000     -68.14040000
H      -43.29340000     -35.88680000     -67.22190000
H      -42.67100000     -34.54930000     -68.18630000
C      -46.40830000     -30.98300000     -68.28510000
H      -46.91020000     -30.45160000     -67.43080000
H      -45.41670000     -30.47890000     -68.41370000
S      -43.46060000     -36.33370000     -69.68700000
S      -47.51780000     -30.66050000     -69.74430000
C      -44.31850000     -35.39430000     -71.06560000
H      -44.31560000     -36.15320000     -71.89480000
H      -45.41550000     -35.26150000     -70.78310000
C      -46.56320000     -31.13060000     -71.22850000
H      -45.53200000     -30.99210000     -71.05890000
H      -46.97970000     -30.48500000     -72.04140000
C      -46.73680000     -32.55840000     -71.61480000
H      -46.29610000     -33.29000000     -70.90420000
H      -47.76970000     -32.75380000     -71.71160000
C      -43.68450000     -34.03490000     -71.35700000
H      -42.68620000     -34.00890000     -71.09500000
H      -44.24140000     -33.23470000     -70.79220000
C      -43.83620000     -33.68650000     -72.83540000
C      -42.81030000     -33.83360000     -73.72470000
C      -44.99290000     -33.27280000     -73.48040000
H      -41.79570000     -34.25890000     -73.55960000
C      -44.82360000     -33.22160000     -74.82690000
C      -46.27000000     -32.80130000     -73.06800000
C      -46.97470000     -32.21930000     -74.12700000
S      -43.29150000     -33.75070000     -75.38610000
S      -46.13320000     -32.54130000     -75.70530000
H      -47.79150000     -31.58400000     -74.12840000
