40
Properties=species:S:1:pos:R:3 #=T CELL(abcABC):=T 1.889726e+02=T 90.00000=T Traj:=T positionsangstrom=T Step:=T 0=T Bead:=T pbc="F F F"
C      -47.43850000     -33.18160000     -67.87100000
C      -46.30690000     -32.35730000     -68.05270000
C      -45.05650000     -33.01430000     -68.10900000
C      -44.85270000     -34.36960000     -68.11990000
C      -46.00690000     -35.14630000     -67.86700000
C      -47.27180000     -34.56720000     -67.84260000
H      -48.51900000     -32.79170000     -67.88700000
H      -44.11980000     -32.42430000     -68.17340000
H      -45.93440000     -36.17720000     -67.74500000
H      -48.08610000     -35.23270000     -67.75010000
C      -43.50130000     -35.07090000     -68.26470000
H      -43.24780000     -35.59370000     -67.28970000
H      -42.71060000     -34.35120000     -68.32770000
C      -46.54860000     -30.85380000     -68.18690000
H      -47.28780000     -30.54100000     -67.43240000
H      -45.62930000     -30.21120000     -68.09590000
S      -43.49870000     -36.46770000     -69.55940000
S      -47.53710000     -30.39200000     -69.69020000
C      -44.18720000     -35.67360000     -71.10300000
H      -43.86100000     -36.34530000     -71.95050000
H      -45.28320000     -35.67000000     -71.10270000
C      -46.43170000     -30.98660000     -71.06140000
H      -45.38200000     -30.93800000     -70.76860000
H      -46.55470000     -30.32980000     -71.93800000
C      -46.68660000     -32.36880000     -71.60380000
H      -46.21260000     -32.98960000     -70.82740000
H      -47.71390000     -32.65000000     -71.62600000
C      -43.63360000     -34.25800000     -71.41430000
H      -42.60870000     -34.24280000     -71.17920000
H      -44.18170000     -33.45510000     -70.89770000
C      -43.80950000     -33.98850000     -72.87020000
C      -42.93240000     -34.46150000     -73.84150000
C      -44.86760000     -33.22570000     -73.45320000
H      -42.21830000     -35.19530000     -73.52330000
C      -44.77700000     -33.25180000     -74.85610000
C      -46.03320000     -32.56280000     -72.98530000
C      -46.73780000     -32.02790000     -74.05060000
S      -43.41160000     -34.04760000     -75.45320000
S      -46.14540000     -32.43710000     -75.63830000
H      -47.72150000     -31.61490000     -74.12390000
