40
Properties=species:S:1:pos:R:3 #=T CELL(abcABC):=T 1.889726e+02=T 90.00000=T Traj:=T positionsangstrom=T Step:=T 0=T Bead:=T pbc="F F F"
C      -47.41450000     -33.28160000     -67.67520000
C      -46.30820000     -32.47560000     -68.00180000
C      -45.08860000     -33.15810000     -68.16370000
C      -44.98400000     -34.58150000     -67.97130000
C      -46.16090000     -35.31590000     -67.70080000
C      -47.37100000     -34.68920000     -67.43950000
H      -48.33010000     -32.82690000     -67.47790000
H      -44.22880000     -32.53750000     -68.33790000
H      -46.17260000     -36.43030000     -67.65200000
H      -48.30950000     -35.14340000     -67.08730000
C      -43.60510000     -35.30230000     -68.20600000
H      -43.38710000     -36.00460000     -67.40890000
H      -42.79130000     -34.56730000     -68.19150000
C      -46.44110000     -30.99160000     -68.15720000
H      -47.10520000     -30.57670000     -67.34690000
H      -45.42080000     -30.60670000     -68.04160000
S      -43.51290000     -36.37930000     -69.72940000
S      -47.15820000     -30.44060000     -69.77220000
C      -44.38170000     -35.33830000     -70.95980000
H      -44.39920000     -35.94740000     -71.82870000
H      -45.44460000     -35.17310000     -70.68160000
C      -46.20090000     -31.26840000     -71.15760000
H      -45.21360000     -31.34180000     -70.84840000
H      -46.24090000     -30.56540000     -71.94100000
C      -46.85000000     -32.55600000     -71.75800000
H      -46.62490000     -33.37520000     -71.06020000
H      -47.94890000     -32.40130000     -71.73700000
C      -43.67710000     -34.08340000     -71.44640000
H      -42.59940000     -34.11240000     -71.22690000
H      -43.92990000     -33.17110000     -70.92230000
C      -43.89490000     -33.83820000     -72.88820000
C      -42.91440000     -34.17480000     -73.74900000
C      -45.02550000     -33.30090000     -73.51850000
H      -41.90660000     -34.49730000     -73.48460000
C      -44.82550000     -33.19650000     -74.88900000
C      -46.26070000     -32.67460000     -73.11210000
C      -46.88300000     -32.09450000     -74.15240000
S      -43.27520000     -33.78070000     -75.42320000
S      -46.17500000     -32.38340000     -75.68570000
H      -47.83520000     -31.56040000     -74.02830000
