40
Properties=species:S:1:pos:R:3 #=T CELL(abcABC):=T 1.889726e+02=T 90.00000=T Traj:=T positionsangstrom=T Step:=T 0=T Bead:=T pbc="F F F"
C      -47.57310000     -33.34740000     -67.90690000
C      -46.45620000     -32.54820000     -68.17870000
C      -45.13830000     -33.07270000     -68.23250000
C      -44.91690000     -34.45860000     -68.07040000
C      -46.08880000     -35.22260000     -67.96820000
C      -47.38490000     -34.71870000     -67.88310000
H      -48.53900000     -32.94370000     -68.01980000
H      -44.29590000     -32.39230000     -68.34870000
H      -45.91640000     -36.32520000     -67.98950000
H      -48.17790000     -35.50700000     -67.81340000
C      -43.57300000     -35.04560000     -68.13890000
H      -43.25680000     -35.36960000     -67.15150000
H      -42.82320000     -34.24350000     -68.41730000
C      -46.58440000     -31.04630000     -68.27400000
H      -47.17080000     -30.68800000     -67.39690000
H      -45.61810000     -30.47000000     -68.20050000
S      -43.31200000     -36.40050000     -69.45420000
S      -47.61700000     -30.36510000     -69.70030000
C      -44.18100000     -35.79810000     -71.00630000
H      -44.07370000     -36.66300000     -71.64520000
H      -45.27860000     -35.56010000     -70.83080000
C      -46.56790000     -30.77920000     -71.08610000
H      -45.51890000     -30.37760000     -70.98270000
H      -46.91040000     -30.29180000     -72.00240000
C      -46.43650000     -32.34740000     -71.45140000
H      -45.74310000     -32.79490000     -70.76680000
H      -47.41880000     -32.77670000     -71.35550000
C      -43.52170000     -34.51850000     -71.49860000
H      -42.41030000     -34.59050000     -71.38500000
H      -43.75740000     -33.69490000     -70.90030000
C      -43.80760000     -34.22500000     -72.94550000
C      -42.95490000     -34.55930000     -74.02600000
C      -44.82940000     -33.26810000     -73.45560000
H      -42.03430000     -35.09850000     -74.01570000
C      -44.77360000     -33.11510000     -74.83250000
C      -45.99050000     -32.50040000     -72.88950000
C      -46.76730000     -31.94130000     -73.85750000
S      -43.43190000     -33.98430000     -75.60430000
S      -46.07960000     -32.15370000     -75.52090000
H      -47.62050000     -31.32760000     -73.60210000
