40
Properties=species:S:1:pos:R:3 #=T CELL(abcABC):=T 1.889726e+02=T 90.00000=T Traj:=T positionsangstrom=T Step:=T 0=T Bead:=T pbc="F F F"
C      -48.19390000     -31.14640000     -70.80710000
C      -47.03270000     -31.80700000     -70.30220000
C      -45.81310000     -31.81040000     -70.95060000
C      -45.74640000     -31.01470000     -72.11080000
C      -46.88290000     -30.46150000     -72.71390000
C      -48.09710000     -30.50050000     -72.03680000
H      -49.08320000     -31.34050000     -70.25470000
H      -44.88370000     -32.25460000     -70.59620000
H      -46.70570000     -30.01220000     -73.64210000
H      -48.97540000     -30.10700000     -72.58090000
C      -44.37170000     -30.82000000     -72.77530000
H      -43.48280000     -30.94140000     -72.15320000
H      -44.31980000     -29.74470000     -73.06090000
C      -47.24120000     -32.65260000     -69.10790000
H      -46.28800000     -32.97540000     -68.71190000
H      -47.71960000     -32.07110000     -68.36550000
S      -44.25060000     -31.67240000     -74.42630000
S      -48.15270000     -34.27600000     -69.47840000
C      -45.43170000     -33.16820000     -74.19850000
H      -46.10250000     -32.78940000     -73.36130000
H      -46.03300000     -33.34150000     -75.09690000
C      -47.76880000     -34.74490000     -71.28070000
H      -47.47600000     -33.79780000     -71.90200000
H      -48.72230000     -35.01070000     -71.73230000
C      -46.70750000     -35.85010000     -71.42550000
H      -47.08280000     -36.76310000     -71.05070000
H      -46.45620000     -36.09140000     -72.50410000
C      -44.62520000     -34.39630000     -73.77030000
H      -43.92260000     -34.60200000     -74.56740000
H      -45.29230000     -35.20760000     -73.80360000
C      -43.78460000     -34.51220000     -72.46610000
C      -42.52040000     -33.97600000     -72.44110000
C      -44.26110000     -34.89420000     -71.13990000
H      -41.92780000     -33.57510000     -73.27520000
C      -43.27890000     -34.65890000     -70.10690000
C      -45.44250000     -35.52020000     -70.61670000
C      -45.32080000     -35.67020000     -69.23160000
S      -41.88590000     -33.88460000     -70.81660000
S      -43.84990000     -35.04490000     -68.56700000
H      -46.02990000     -36.17330000     -68.54900000
