40
Properties=species:S:1:pos:R:3 #=T CELL(abcABC):=T 1.889726e+02=T 90.00000=T Traj:=T positionsangstrom=T Step:=T 0=T Bead:=T pbc="F F F"
C      -48.66990000     -31.44880000     -71.58480000
C      -48.19830000     -32.10530000     -72.76540000
C      -47.01500000     -31.62330000     -73.40960000
C      -46.32730000     -30.47050000     -72.95740000
C      -46.82880000     -29.87800000     -71.80570000
C      -47.97300000     -30.29620000     -71.12560000
H      -49.66490000     -31.69510000     -71.18140000
H      -46.61740000     -32.07530000     -74.33370000
H      -46.25510000     -29.01340000     -71.45030000
H      -48.35810000     -29.68130000     -70.25690000
C      -45.13120000     -29.98560000     -73.70820000
H      -44.61480000     -29.20590000     -73.13690000
H      -45.38050000     -29.45630000     -74.62850000
C      -48.86610000     -33.29290000     -73.36830000
H      -49.89100000     -33.39620000     -73.04870000
H      -48.90710000     -33.35770000     -74.48510000
S      -43.78860000     -31.26430000     -73.93510000
S      -48.06460000     -35.09590000     -72.99880000
C      -43.26460000     -31.74580000     -72.23410000
H      -42.38910000     -32.27510000     -72.47440000
H      -42.85500000     -31.02810000     -71.51390000
C      -46.95480000     -34.75690000     -71.65440000
H      -47.46350000     -34.69570000     -70.70520000
H      -46.52090000     -33.73250000     -71.87860000
C      -45.75710000     -35.81250000     -71.66450000
H      -46.27110000     -36.77960000     -71.73820000
H      -45.17040000     -35.65410000     -72.58960000
C      -44.30710000     -32.71960000     -71.64220000
H      -44.71730000     -33.38510000     -72.46620000
H      -45.18920000     -32.21570000     -71.31020000
C      -43.66410000     -33.47550000     -70.48880000
C      -42.65560000     -32.88690000     -69.73360000
C      -44.12660000     -34.74420000     -69.97640000
H      -42.18190000     -31.87340000     -69.86630000
C      -43.43130000     -35.10720000     -68.86780000
C      -45.02340000     -35.80930000     -70.37680000
C      -45.04990000     -36.84130000     -69.49360000
S      -42.24610000     -33.94240000     -68.40440000
S      -43.84090000     -36.60270000     -68.13270000
H      -45.76090000     -37.64670000     -69.77210000
