40
Properties=species:S:1:pos:R:3 #=T CELL(abcABC):=T 1.889726e+02=T 90.00000=T Traj:=T positionsangstrom=T Step:=T 0=T Bead:=T pbc="F F F"
C      -47.27920000     -34.03340000     -68.33300000
C      -46.28520000     -33.09790000     -68.15510000
C      -44.94920000     -33.50490000     -68.19310000
C      -44.59850000     -34.82730000     -68.44720000
C      -45.61500000     -35.77820000     -68.70490000
C      -46.95230000     -35.37970000     -68.64230000
H      -48.32300000     -33.75940000     -68.16140000
H      -44.12770000     -32.80700000     -68.04820000
H      -45.27960000     -36.78830000     -68.94470000
H      -47.79390000     -36.08210000     -68.73550000
C      -43.14330000     -35.13510000     -68.46830000
H      -42.80260000     -35.59630000     -67.56490000
H      -42.65890000     -34.24970000     -68.70800000
C      -46.61430000     -31.61130000     -67.86870000
H      -47.19750000     -31.59270000     -66.97090000
H      -45.71360000     -31.04570000     -67.86200000
S      -42.49120000     -36.21550000     -69.82080000
S      -47.78450000     -30.86300000     -69.17570000
C      -43.52780000     -35.59260000     -71.32610000
H      -43.01390000     -35.95760000     -72.16590000
H      -44.48590000     -36.12020000     -71.38410000
C      -46.75780000     -31.09880000     -70.79280000
H      -45.72880000     -30.79420000     -70.66370000
H      -47.13350000     -30.46750000     -71.53490000
C      -46.94350000     -32.50460000     -71.30950000
H      -46.42950000     -33.28670000     -70.71220000
H      -47.99290000     -32.63950000     -71.21830000
C      -43.71470000     -34.00120000     -71.41110000
H      -42.80890000     -33.56430000     -71.04150000
H      -44.57030000     -33.75970000     -70.74320000
C      -43.99510000     -33.55930000     -72.82580000
C      -43.06540000     -33.80120000     -73.83630000
C      -45.21540000     -33.00180000     -73.34790000
H      -42.12470000     -34.33280000     -73.79130000
C      -45.12020000     -32.71600000     -74.70300000
C      -46.49650000     -32.51750000     -72.78690000
C      -47.24600000     -31.90530000     -73.72690000
S      -43.68040000     -33.33620000     -75.49640000
S      -46.49830000     -31.80290000     -75.31750000
H      -48.25620000     -31.58670000     -73.47690000
