40
Properties=species:S:1:pos:R:3 #=T CELL(abcABC):=T 1.889726e+02=T 90.00000=T Traj:=T positionsangstrom=T Step:=T 0=T Bead:=T pbc="F F F"
C      -47.37700000     -33.50420000     -67.80920000
C      -46.21720000     -32.76570000     -68.02030000
C      -45.04780000     -33.45210000     -68.25190000
C      -45.00530000     -34.87320000     -68.18790000
C      -46.16450000     -35.61160000     -67.96800000
C      -47.35870000     -34.91480000     -67.80530000
H      -48.39880000     -32.97560000     -67.53070000
H      -44.14540000     -32.91360000     -68.33850000
H      -46.16010000     -36.71260000     -67.87900000
H      -48.27480000     -35.44780000     -67.49060000
C      -43.63200000     -35.48450000     -68.30220000
H      -43.51400000     -36.34220000     -67.62200000
H      -42.82140000     -34.82700000     -68.11410000
C      -46.34150000     -31.28710000     -68.14170000
H      -46.81820000     -30.73280000     -67.26740000
H      -45.37790000     -30.82350000     -68.15380000
S      -43.32550000     -36.22040000     -70.01300000
S      -47.47040000     -30.69740000     -69.49580000
C      -44.11920000     -35.06920000     -71.17590000
H      -44.22810000     -35.58090000     -72.10780000
H      -45.10260000     -34.83120000     -70.80690000
C      -46.52920000     -31.09110000     -71.06840000
H      -45.47930000     -31.04290000     -70.81980000
H      -46.73870000     -30.34770000     -71.83380000
C      -46.64840000     -32.57310000     -71.44590000
H      -46.11850000     -33.09700000     -70.67320000
H      -47.69470000     -32.84110000     -71.34580000
C      -43.35290000     -33.76220000     -71.44500000
H      -42.30650000     -33.91850000     -71.24740000
H      -43.76790000     -32.95730000     -70.78440000
C      -43.57960000     -33.45810000     -72.84810000
C      -42.72550000     -33.77210000     -73.89550000
C      -44.89570000     -32.96740000     -73.39160000
H      -41.76630000     -34.21830000     -73.71510000
C      -44.88830000     -32.93200000     -74.78550000
C      -46.22040000     -32.69420000     -72.87600000
C      -47.17210000     -32.47330000     -73.84470000
S      -43.31100000     -33.30520000     -75.47960000
S      -46.42340000     -32.59180000     -75.49510000
H      -48.21970000     -32.27010000     -73.83660000
