40
Properties=species:S:1:pos:R:3 #=T CELL(abcABC):=T 1.889726e+02=T 90.00000=T Traj:=T positionsangstrom=T Step:=T 0=T Bead:=T pbc="F F F"
C      -47.74880000     -33.04770000     -72.77940000
C      -48.07880000     -32.50520000     -71.50350000
C      -47.52990000     -31.28940000     -71.10620000
C      -46.54300000     -30.59000000     -71.85120000
C      -46.19840000     -31.19160000     -73.06270000
C      -46.77900000     -32.30680000     -73.49200000
H      -48.30630000     -33.91970000     -73.18970000
H      -47.97810000     -30.79950000     -70.22140000
H      -45.50260000     -30.70090000     -73.73720000
H      -46.51220000     -32.76320000     -74.50980000
C      -46.11910000     -29.24210000     -71.31240000
H      -46.90550000     -28.81330000     -70.78180000
H      -45.89030000     -28.44170000     -72.03990000
C      -49.25730000     -33.29610000     -70.76680000
H      -49.80710000     -32.50970000     -70.25590000
H      -49.85970000     -33.79370000     -71.52890000
S      -44.79870000     -29.45680000     -70.03530000
S      -48.90310000     -34.50570000     -69.46940000
C      -43.64980000     -30.85710000     -70.73900000
H      -43.86670000     -30.77100000     -71.80500000
H      -42.62580000     -30.72370000     -70.33340000
C      -47.53760000     -35.51170000     -70.29430000
H      -47.74320000     -35.83570000     -71.30970000
H      -47.47880000     -36.45900000     -69.73750000
C      -46.12000000     -34.79100000     -70.18530000
H      -46.33980000     -33.89790000     -70.68430000
H      -45.90610000     -34.38750000     -69.12980000
C      -44.03590000     -32.32180000     -70.29940000
H      -45.09280000     -32.56130000     -70.32740000
H      -43.81290000     -32.32870000     -69.17530000
C      -43.26430000     -33.37060000     -71.15030000
C      -42.09450000     -33.11150000     -71.74230000
C      -43.78720000     -34.68760000     -71.35270000
H      -41.41920000     -32.25830000     -71.75630000
C      -42.89260000     -35.52890000     -72.07620000
C      -44.94290000     -35.41370000     -70.86840000
C      -44.79610000     -36.76840000     -71.22070000
S      -41.43460000     -34.64340000     -72.57800000
S      -43.43090000     -37.19730000     -72.26480000
H      -45.48080000     -37.52360000     -70.99530000
