40
Properties=species:S:1:pos:R:3 #=T CELL(abcABC):=T 1.889726e+02=T 90.00000=T Traj:=T positionsangstrom=T Step:=T 0=T Bead:=T pbc="F F F"
C      -41.99460000     -35.83360000     -70.26560000
C      -42.79030000     -35.90390000     -71.43810000
C      -42.71760000     -34.88800000     -72.42000000
C      -42.12170000     -33.69250000     -72.06510000
C      -41.49090000     -33.51720000     -70.78410000
C      -41.29830000     -34.62790000     -70.01120000
H      -41.89830000     -36.77080000     -69.69520000
H      -43.33740000     -34.86260000     -73.34660000
H      -40.99610000     -32.58770000     -70.44700000
H      -40.73650000     -34.59710000     -69.08810000
C      -42.07850000     -32.47600000     -73.05270000
H      -41.20200000     -32.58850000     -73.72170000
H      -41.81320000     -31.58800000     -72.40870000
C      -43.50640000     -37.26380000     -71.64270000
H      -43.10890000     -37.87630000     -72.41250000
H      -43.27030000     -38.04420000     -70.79680000
S      -43.40570000     -32.14260000     -74.27700000
S      -45.31530000     -37.02830000     -71.97300000
C      -44.55440000     -31.21040000     -73.19930000
H      -44.07570000     -30.32260000     -72.58500000
H      -45.45090000     -30.84470000     -73.72100000
C      -45.82900000     -35.75970000     -70.75770000
H      -44.94870000     -35.19990000     -70.47740000
H      -46.19570000     -36.22310000     -69.79300000
C      -46.99000000     -34.87900000     -71.42010000
H      -46.74030000     -34.65290000     -72.45980000
H      -47.65330000     -35.70300000     -71.73380000
C      -45.21470000     -32.13380000     -72.16350000
H      -44.38430000     -32.57750000     -71.48320000
H      -45.60590000     -33.08780000     -72.67680000
C      -46.24910000     -31.52450000     -71.29600000
C      -46.32130000     -30.20840000     -70.97980000
C      -47.19840000     -32.36770000     -70.61500000
H      -45.71670000     -29.44390000     -71.36060000
C      -48.10000000     -31.56800000     -69.87540000
C      -47.60400000     -33.77690000     -70.63960000
C      -48.81630000     -33.92920000     -69.91320000
S      -47.65340000     -29.82710000     -69.89010000
S      -49.44640000     -32.42600000     -69.22550000
H      -49.24760000     -34.90190000     -69.81240000
