40
Properties=species:S:1:pos:R:3 #=T CELL(abcABC):=T 1.889726e+02=T 90.00000=T Traj:=T positionsangstrom=T Step:=T 0=T Bead:=T pbc="F F F"
C      -47.23120000     -34.40170000     -67.57030000
C      -46.33610000     -33.34980000     -67.80240000
C      -44.97830000     -33.49210000     -68.17080000
C      -44.48380000     -34.75240000     -68.31640000
C      -45.34280000     -35.84670000     -68.08840000
C      -46.71210000     -35.70750000     -67.74630000
H      -48.29980000     -34.17510000     -67.31820000
H      -44.40100000     -32.54010000     -68.27480000
H      -44.90580000     -36.85120000     -68.37210000
H      -47.38040000     -36.57690000     -67.58680000
C      -43.04590000     -34.95710000     -68.62360000
H      -42.60610000     -35.55100000     -67.81160000
H      -42.58300000     -33.97160000     -68.70630000
C      -46.78250000     -31.88720000     -67.75800000
H      -47.40150000     -31.68460000     -66.85890000
H      -45.99380000     -31.22090000     -67.68700000
S      -42.69370000     -35.99240000     -70.16000000
S      -48.02050000     -31.38220000     -69.08590000
C      -43.56020000     -35.40120000     -71.65450000
H      -43.11180000     -36.01430000     -72.45450000
H      -44.63760000     -35.72030000     -71.54780000
C      -46.98180000     -31.22720000     -70.60110000
H      -46.16840000     -30.56090000     -70.45960000
H      -47.71680000     -30.81360000     -71.36940000
C      -46.57480000     -32.62340000     -71.20090000
H      -45.76940000     -33.06880000     -70.68170000
H      -47.44930000     -33.29770000     -71.11560000
C      -43.18150000     -33.88770000     -71.92790000
H      -42.06620000     -33.83470000     -72.07310000
H      -43.48490000     -33.42970000     -71.06510000
C      -43.82110000     -33.48850000     -73.19720000
C      -43.05870000     -33.62800000     -74.36940000
C      -45.08480000     -32.88340000     -73.46640000
H      -42.10250000     -34.12110000     -74.48510000
C      -45.17260000     -32.43000000     -74.79050000
C      -46.30270000     -32.54030000     -72.74480000
C      -47.18890000     -31.90640000     -73.55680000
S      -43.84490000     -32.98270000     -75.82000000
S      -46.59400000     -31.71750000     -75.24730000
H      -48.14860000     -31.43680000     -73.27080000
