40
Properties=species:S:1:pos:R:3 #=T CELL(abcABC):=T 1.889726e+02=T 90.00000=T Traj:=T positionsangstrom=T Step:=T 0=T Bead:=T pbc="F F F"
C      -44.91680000     -36.51730000     -70.34890000
C      -45.46130000     -36.48060000     -71.66040000
C      -44.59100000     -36.19670000     -72.74830000
C      -43.22220000     -35.98950000     -72.57230000
C      -42.72820000     -36.00600000     -71.27360000
C      -43.55110000     -36.25930000     -70.17900000
H      -45.64300000     -36.74060000     -69.53870000
H      -45.03510000     -35.86640000     -73.74940000
H      -41.64910000     -35.82010000     -71.06330000
H      -43.14840000     -36.24260000     -69.18620000
C      -42.44850000     -35.48340000     -73.75450000
H      -42.54850000     -36.19460000     -74.61080000
H      -41.35900000     -35.28190000     -73.55950000
C      -46.97110000     -36.75930000     -71.80870000
H      -47.21210000     -37.64030000     -72.38810000
H      -47.34420000     -37.00810000     -70.81890000
S      -43.15030000     -33.88650000     -74.42020000
S      -47.88390000     -35.36300000     -72.45370000
C      -43.33530000     -32.67560000     -73.06680000
H      -42.40390000     -32.84380000     -72.52720000
H      -43.13100000     -31.62490000     -73.43470000
C      -47.66100000     -34.17570000     -71.04740000
H      -46.59660000     -34.15890000     -70.80630000
H      -48.15300000     -34.34450000     -70.05360000
C      -47.92450000     -32.74160000     -71.61480000
H      -47.38070000     -32.73070000     -72.48700000
H      -48.94500000     -32.38330000     -71.81440000
C      -44.65480000     -32.74510000     -72.29860000
H      -44.70630000     -33.82760000     -72.01540000
H      -45.49100000     -32.58270000     -72.90780000
C      -44.71720000     -31.79750000     -71.13990000
C      -43.63610000     -31.32840000     -70.44160000
C      -45.93510000     -31.33930000     -70.52240000
H      -42.60840000     -31.46040000     -70.71820000
C      -45.69230000     -30.55900000     -69.40330000
C      -47.36370000     -31.68280000     -70.65540000
C      -48.16450000     -31.06690000     -69.73780000
S      -44.01060000     -30.39780000     -68.99900000
S      -47.23450000     -29.99290000     -68.74270000
H      -49.18220000     -31.30500000     -69.53100000
