40
Properties=species:S:1:pos:R:3 #=T CELL(abcABC):=T 1.889726e+02=T 90.00000=T Traj:=T positionsangstrom=T Step:=T 0=T Bead:=T pbc="F F F"
C      -45.23070000     -36.66170000     -70.73910000
C      -45.75900000     -36.57220000     -72.02650000
C      -44.88420000     -36.10850000     -73.06290000
C      -43.57590000     -35.83760000     -72.85170000
C      -43.08940000     -35.93040000     -71.50940000
C      -43.90790000     -36.37320000     -70.49140000
H      -45.78400000     -37.15680000     -69.90680000
H      -45.28670000     -35.96510000     -74.07230000
H      -42.06640000     -35.85720000     -71.27740000
H      -43.46970000     -36.45260000     -69.52460000
C      -42.69880000     -35.39200000     -73.94170000
H      -43.07520000     -35.91300000     -74.89580000
H      -41.65640000     -35.74430000     -73.78520000
C      -47.21200000     -36.84040000     -72.26340000
H      -47.39360000     -37.43740000     -73.15310000
H      -47.62270000     -37.28160000     -71.36690000
S      -42.85170000     -33.66940000     -74.31790000
S      -48.14660000     -35.23130000     -72.60020000
C      -43.00660000     -32.84240000     -72.69970000
H      -42.63620000     -33.37540000     -71.86690000
H      -42.54580000     -31.81790000     -72.74740000
C      -47.68310000     -34.22020000     -71.18220000
H      -46.67610000     -34.41090000     -70.84920000
H      -48.36440000     -34.49080000     -70.38180000
C      -47.65160000     -32.73730000     -71.55120000
H      -46.88360000     -32.73170000     -72.36470000
H      -48.68960000     -32.43480000     -71.88160000
C      -44.51810000     -32.54140000     -72.26550000
H      -44.94210000     -33.55860000     -72.01690000
H      -45.14820000     -32.07570000     -73.03730000
C      -44.54100000     -31.81160000     -70.92640000
C      -43.46190000     -31.12670000     -70.42060000
C      -45.80460000     -31.49640000     -70.23330000
H      -42.42070000     -31.09050000     -70.80670000
C      -45.57510000     -30.75010000     -69.09720000
C      -47.16450000     -31.84930000     -70.42280000
C      -47.93350000     -31.35350000     -69.41280000
S      -43.90820000     -30.21730000     -69.00510000
S      -47.06680000     -30.24350000     -68.31390000
H      -48.99860000     -31.48770000     -69.49850000
