40
Properties=species:S:1:pos:R:3 #=T CELL(abcABC):=T 1.889726e+02=T 90.00000=T Traj:=T positionsangstrom=T Step:=T 0=T Bead:=T pbc="F F F"
C      -45.15370000     -36.70310000     -70.64000000
C      -45.69850000     -36.63830000     -71.93870000
C      -44.87360000     -36.31370000     -73.02370000
C      -43.58540000     -35.83280000     -72.78590000
C      -43.04010000     -36.01480000     -71.52420000
C      -43.83260000     -36.39310000     -70.42610000
H      -45.74180000     -36.83860000     -69.77380000
H      -45.30610000     -36.31830000     -74.03210000
H      -41.98910000     -35.69650000     -71.26640000
H      -43.46220000     -36.34900000     -69.42800000
C      -42.68130000     -35.38420000     -73.92660000
H      -42.79590000     -35.89740000     -74.83040000
H      -41.68380000     -35.46900000     -73.58790000
C      -47.17840000     -36.89800000     -72.15990000
H      -47.38790000     -37.63120000     -72.99250000
H      -47.59600000     -37.25280000     -71.15290000
S      -43.00620000     -33.59290000     -74.47420000
S      -48.14720000     -35.34320000     -72.55270000
C      -42.95890000     -32.69720000     -72.78330000
H      -42.08880000     -32.87100000     -72.17330000
H      -42.73530000     -31.66690000     -73.22590000
C      -47.62890000     -34.15520000     -71.13250000
H      -46.67320000     -34.25560000     -70.60950000
H      -48.43640000     -34.42980000     -70.40880000
C      -47.82580000     -32.71230000     -71.56500000
H      -47.37570000     -32.48800000     -72.57800000
H      -48.79500000     -32.44910000     -71.65250000
C      -44.34190000     -32.73020000     -72.11040000
H      -44.69790000     -33.71630000     -71.90590000
H      -45.00670000     -32.34390000     -72.91840000
C      -44.47810000     -31.85080000     -70.88520000
C      -43.41480000     -31.23170000     -70.21660000
C      -45.78740000     -31.50020000     -70.32970000
H      -42.35390000     -31.19510000     -70.42370000
C      -45.59350000     -30.61390000     -69.26340000
C      -47.20300000     -31.71120000     -70.59930000
C      -47.95740000     -31.11010000     -69.61200000
S      -43.95760000     -30.24420000     -68.89770000
S      -47.05010000     -30.20400000     -68.40590000
H      -49.08810000     -31.14250000     -69.58940000
