40
Properties=species:S:1:pos:R:3 #=T CELL(abcABC):=T 1.889726e+02=T 90.00000=T Traj:=T positionsangstrom=T Step:=T 0=T Bead:=T pbc="F F F"
C      -45.55680000     -37.25440000     -71.15300000
C      -45.96860000     -36.61550000     -72.33140000
C      -44.97620000     -36.06630000     -73.14830000
C      -43.60100000     -35.99770000     -72.74700000
C      -43.22350000     -36.65900000     -71.56290000
C      -44.22040000     -37.39430000     -70.79990000
H      -46.32650000     -37.82280000     -70.56600000
H      -45.29020000     -35.57900000     -74.07440000
H      -42.22830000     -36.62230000     -71.17480000
H      -43.93180000     -37.99550000     -69.94030000
C      -42.51270000     -35.41550000     -73.58740000
H      -42.28280000     -35.93170000     -74.51270000
H      -41.67880000     -35.36830000     -72.91540000
C      -47.41650000     -36.63250000     -72.69970000
H      -47.56300000     -37.15340000     -73.65130000
H      -48.14720000     -37.19370000     -72.11510000
S      -43.10290000     -33.75050000     -74.20820000
S      -48.07780000     -34.94060000     -72.95510000
C      -43.01740000     -32.62830000     -72.68370000
H      -42.60440000     -33.23040000     -71.92240000
H      -42.19060000     -31.89890000     -72.96380000
C      -47.46900000     -34.00460000     -71.43190000
H      -46.40980000     -34.31150000     -71.26800000
H      -48.03130000     -34.40640000     -70.54930000
C      -47.51620000     -32.48010000     -71.60520000
H      -47.04040000     -32.26810000     -72.55210000
H      -48.54340000     -32.29290000     -71.75700000
C      -44.27920000     -31.93130000     -72.32780000
H      -45.19840000     -32.37550000     -72.64220000
H      -44.21010000     -31.09740000     -73.00460000
C      -44.36620000     -31.42880000     -70.87870000
C      -43.33620000     -30.78750000     -70.21440000
C      -45.57330000     -31.34300000     -70.13700000
H      -42.37400000     -30.51470000     -70.56070000
C      -45.51530000     -30.62500000     -68.96100000
C      -46.99790000     -31.69940000     -70.41050000
C      -47.81620000     -31.42350000     -69.35140000
S      -43.88870000     -30.15350000     -68.65850000
S      -47.05080000     -30.59050000     -68.00530000
H      -48.92780000     -31.57060000     -69.18050000
