40
Properties=species:S:1:pos:R:3 #=T CELL(abcABC):=T 1.889726e+02=T 90.00000=T Traj:=T positionsangstrom=T Step:=T 0=T Bead:=T pbc="F F F"
C      -46.43940000     -37.32720000     -71.58090000
C      -46.42530000     -36.28190000     -72.58470000
C      -45.21250000     -35.83130000     -73.10490000
C      -43.95980000     -36.30690000     -72.58070000
C      -44.00510000     -37.25840000     -71.48680000
C      -45.24560000     -37.78800000     -71.03630000
H      -47.41660000     -37.80050000     -71.20030000
H      -45.21000000     -35.19890000     -73.94290000
H      -43.04640000     -37.56350000     -70.95210000
H      -45.23910000     -38.49730000     -70.18240000
C      -42.72390000     -35.86990000     -73.22800000
H      -42.48220000     -36.59920000     -73.96430000
H      -41.91590000     -35.89400000     -72.50270000
C      -47.82210000     -35.90820000     -73.12560000
H      -48.01340000     -36.23580000     -74.12740000
H      -48.58660000     -36.22390000     -72.40650000
S      -42.76150000     -34.15860000     -73.86170000
S      -48.09380000     -34.10720000     -73.46670000
C      -42.74230000     -33.23460000     -72.28410000
H      -42.33590000     -33.89200000     -71.56690000
H      -42.12470000     -32.29920000     -72.36070000
C      -47.76930000     -33.50860000     -71.70810000
H      -46.90480000     -34.08850000     -71.48610000
H      -48.58160000     -33.76770000     -71.03070000
C      -47.35580000     -32.05060000     -71.74200000
H      -46.55140000     -31.95500000     -72.49690000
H      -48.07660000     -31.28680000     -72.19320000
C      -44.13000000     -32.73970000     -71.86570000
H      -44.71180000     -33.67990000     -71.65080000
H      -44.50140000     -32.16980000     -72.65190000
C      -44.14860000     -31.92520000     -70.55320000
C      -43.06330000     -31.72780000     -69.69310000
C      -45.35710000     -31.44450000     -70.01890000
H      -42.05270000     -31.92520000     -69.87740000
C      -45.22040000     -30.69220000     -68.87810000
C      -46.79040000     -31.40090000     -70.46980000
C      -47.56790000     -30.61330000     -69.65790000
S      -43.55560000     -30.73610000     -68.29890000
S      -46.62060000     -29.80500000     -68.39080000
H      -48.69050000     -30.39930000     -69.83510000
