40
Properties=species:S:1:pos:R:3 #=T CELL(abcABC):=T 1.889726e+02=T 90.00000=T Traj:=T positionsangstrom=T Step:=T 0=T Bead:=T pbc="F F F"
C      -42.09430000     -35.72670000     -70.30410000
C      -42.80160000     -35.77410000     -71.49940000
C      -42.67240000     -34.69910000     -72.44560000
C      -41.74460000     -33.66240000     -72.13780000
C      -40.92410000     -33.74180000     -71.00570000
C      -41.16180000     -34.75120000     -70.09930000
H      -42.20080000     -36.53810000     -69.57110000
H      -43.32460000     -34.69060000     -73.28380000
H      -40.24120000     -32.93740000     -70.80570000
H      -40.71580000     -34.88450000     -69.06000000
C      -41.63830000     -32.38170000     -73.01960000
H      -40.80680000     -32.63480000     -73.83900000
H      -41.37400000     -31.52890000     -72.42630000
C      -43.66540000     -37.01780000     -71.84410000
H      -43.15790000     -37.37210000     -72.79180000
H      -43.44520000     -37.72030000     -71.07840000
S      -43.09150000     -31.95940000     -73.95840000
S      -45.54240000     -37.00610000     -72.04580000
C      -44.32160000     -31.24200000     -72.68990000
H      -43.84420000     -30.50500000     -72.04140000
H      -44.88140000     -30.58490000     -73.35670000
C      -46.03540000     -35.44730000     -71.22250000
H      -45.18920000     -34.76690000     -71.20570000
H      -46.07620000     -35.70300000     -70.15840000
C      -47.32550000     -34.86660000     -71.78340000
H      -47.13040000     -34.29080000     -72.69470000
H      -47.94570000     -35.73960000     -71.88920000
C      -45.16640000     -32.32480000     -72.04850000
H      -44.39940000     -32.76210000     -71.32500000
H      -45.39540000     -33.13640000     -72.75340000
C      -46.34090000     -31.67500000     -71.25270000
C      -46.34020000     -30.38080000     -70.78140000
C      -47.35140000     -32.43220000     -70.61050000
H      -45.66680000     -29.62330000     -71.20330000
C      -48.19850000     -31.68130000     -69.78670000
C      -47.89460000     -33.79070000     -70.84470000
C      -49.03950000     -33.92350000     -70.09800000
S      -47.67980000     -29.99920000     -69.76850000
S      -49.59530000     -32.52670000     -69.19240000
H      -49.67300000     -34.80130000     -70.13730000
