40
Properties=species:S:1:pos:R:3 #=T CELL(abcABC):=T 1.889726e+02=T 90.00000=T Traj:=T positionsangstrom=T Step:=T 0=T Bead:=T pbc="F F F"
C      -47.17270000     -36.24730000     -71.62350000
C      -46.92740000     -35.84150000     -72.93940000
C      -45.61290000     -35.76760000     -73.36650000
C      -44.52920000     -36.04680000     -72.51400000
C      -44.82340000     -36.46100000     -71.19660000
C      -46.14640000     -36.56470000     -70.77210000
H      -48.26150000     -36.38170000     -71.41780000
H      -45.28720000     -35.60610000     -74.40070000
H      -44.01100000     -36.78430000     -70.60420000
H      -46.37730000     -37.09400000     -69.83520000
C      -43.12500000     -36.17720000     -72.92030000
H      -42.90300000     -36.82060000     -73.72540000
H      -42.45230000     -36.51550000     -72.10060000
C      -47.95260000     -35.25120000     -73.81600000
H      -47.87370000     -35.52950000     -74.83400000
H      -48.96750000     -35.51740000     -73.54140000
S      -42.38920000     -34.51700000     -73.66520000
S      -47.80360000     -33.33300000     -73.89390000
C      -42.34300000     -33.55540000     -72.05010000
H      -41.99240000     -34.31010000     -71.30510000
H      -41.68380000     -32.70200000     -72.22750000
C      -47.60700000     -32.83120000     -72.11350000
H      -47.20130000     -33.57130000     -71.47850000
H      -48.57230000     -32.64030000     -71.61100000
C      -46.84670000     -31.53220000     -72.15040000
H      -46.06530000     -31.53580000     -72.93600000
H      -47.42890000     -30.64930000     -72.40250000
C      -43.71580000     -33.05170000     -71.76320000
H      -44.37930000     -33.86790000     -71.73170000
H      -44.05080000     -32.40530000     -72.51760000
C      -43.93410000     -32.35380000     -70.40670000
C      -43.09320000     -32.56540000     -69.35980000
C      -45.20020000     -31.74270000     -70.05870000
H      -42.15450000     -33.01770000     -69.35470000
C      -45.12020000     -31.33730000     -68.72770000
C      -46.31870000     -31.20230000     -70.72810000
C      -47.18050000     -30.52850000     -69.84230000
S      -43.67100000     -31.85710000     -67.91440000
S      -46.50350000     -30.30800000     -68.20600000
H      -48.00200000     -30.07280000     -70.24070000
