40
Properties=species:S:1:pos:R:3 #=T CELL(abcABC):=T 1.889726e+02=T 90.00000=T Traj:=T positionsangstrom=T Step:=T 0=T Bead:=T pbc="F F F"
C      -46.65200000     -36.05550000     -71.06680000
C      -46.73210000     -35.86890000     -72.48550000
C      -45.58270000     -35.91920000     -73.24030000
C      -44.37220000     -36.37370000     -72.69300000
C      -44.29050000     -36.70500000     -71.31750000
C      -45.39610000     -36.47160000     -70.50460000
H      -47.47460000     -35.78020000     -70.40350000
H      -45.62850000     -35.52500000     -74.26420000
H      -43.42080000     -37.15680000     -70.94410000
H      -45.49730000     -36.76930000     -69.42210000
C      -43.06440000     -36.37680000     -73.48740000
H      -43.27430000     -36.62440000     -74.53100000
H      -42.38350000     -37.08180000     -73.04990000
C      -48.07140000     -35.48970000     -73.16750000
H      -48.21690000     -36.18650000     -73.97990000
H      -48.87480000     -35.59110000     -72.39530000
S      -42.34270000     -34.63240000     -73.46430000
S      -48.00490000     -33.73140000     -73.72960000
C      -42.55080000     -33.72790000     -71.91570000
H      -42.32930000     -34.39210000     -71.09200000
H      -41.68040000     -33.07110000     -71.94260000
C      -47.38900000     -33.04200000     -72.07680000
H      -46.44120000     -33.46230000     -71.70730000
H      -48.26520000     -33.26640000     -71.47850000
C      -47.11660000     -31.55390000     -72.15320000
H      -46.37870000     -31.18990000     -72.90300000
H      -48.01630000     -30.91180000     -72.21170000
C      -43.92150000     -33.08430000     -71.89830000
H      -44.70850000     -33.87720000     -71.94320000
H      -44.04100000     -32.51960000     -72.85050000
C      -44.04210000     -32.21110000     -70.64010000
C      -43.03000000     -32.08710000     -69.72750000
C      -45.29400000     -31.58320000     -70.26840000
H      -42.02330000     -32.53410000     -69.64260000
C      -45.20100000     -31.01850000     -68.97160000
C      -46.63080000     -31.13830000     -70.79560000
C      -47.41310000     -30.40870000     -69.91030000
S      -43.72150000     -31.40910000     -68.15830000
S      -46.65130000     -30.18740000     -68.38140000
H      -48.48840000     -30.14020000     -70.12120000
