40
Properties=species:S:1:pos:R:3 #=T CELL(abcABC):=T 1.889726e+02=T 90.00000=T Traj:=T positionsangstrom=T Step:=T 0=T Bead:=T pbc="F F F"
C      -46.81660000     -36.94050000     -71.56060000
C      -47.06920000     -35.89200000     -72.44950000
C      -47.79320000     -34.69100000     -72.12720000
C      -48.27530000     -34.58060000     -70.81230000
C      -47.97720000     -35.63950000     -69.91380000
C      -47.31910000     -36.82610000     -70.25170000
H      -46.21600000     -37.78220000     -71.79740000
H      -47.88360000     -33.92980000     -72.85250000
H      -48.35090000     -35.52840000     -68.97580000
H      -47.06180000     -37.51310000     -69.42030000
C      -49.28910000     -33.52910000     -70.53860000
H      -49.34970000     -33.33280000     -69.53020000
H      -50.34570000     -33.72650000     -70.88390000
C      -46.53740000     -36.01820000     -73.84490000
H      -46.06100000     -37.03610000     -73.87210000
H      -47.45480000     -36.09430000     -74.47350000
S      -48.88090000     -31.92010000     -71.35740000
S      -45.53440000     -34.67640000     -74.43320000
C      -47.27870000     -31.51150000     -70.66890000
H      -47.15520000     -30.45810000     -70.60920000
H      -47.31090000     -31.85330000     -69.63420000
C      -44.21360000     -34.50700000     -73.05860000
H      -43.49980000     -35.29440000     -73.01830000
H      -44.61040000     -34.38450000     -72.11230000
C      -43.54880000     -33.13260000     -73.35490000
H      -42.84800000     -33.33550000     -74.13800000
H      -44.25170000     -32.34790000     -73.81530000
C      -45.92000000     -31.98920000     -71.42000000
H      -45.91530000     -31.56050000     -72.39270000
H      -45.95690000     -33.01540000     -71.57950000
C      -44.73570000     -31.73640000     -70.53970000
C      -44.79240000     -31.29640000     -69.22020000
C      -43.38310000     -32.15790000     -70.90040000
H      -45.62220000     -30.79550000     -68.72490000
C      -42.45890000     -31.92870000     -69.91740000
C      -42.83790000     -32.76610000     -72.10640000
C      -41.50490000     -32.91740000     -71.87730000
S      -43.16850000     -31.34240000     -68.46000000
S      -40.83480000     -32.56380000     -70.27970000
H      -40.88220000     -33.40690000     -72.65230000
