40
Properties=species:S:1:pos:R:3 #=T CELL(abcABC):=T 1.889726e+02=T 90.00000=T Traj:=T positionsangstrom=T Step:=T 0=T Bead:=T pbc="F F F"
C      -47.46080000     -36.08710000     -72.69820000
C      -46.77790000     -35.25710000     -73.67040000
C      -45.44140000     -35.48390000     -73.91190000
C      -44.68770000     -36.46760000     -73.17300000
C      -45.39380000     -37.27320000     -72.23100000
C      -46.76300000     -37.14130000     -72.07620000
H      -48.48030000     -36.08130000     -72.43790000
H      -45.01540000     -34.84710000     -74.69760000
H      -44.79010000     -37.94150000     -71.61220000
H      -47.19370000     -37.84350000     -71.39420000
C      -43.23060000     -36.64340000     -73.29160000
H      -42.80960000     -36.68730000     -74.29490000
H      -42.97910000     -37.55000000     -72.81990000
C      -47.66820000     -34.31830000     -74.56660000
H      -47.50780000     -34.49060000     -75.60680000
H      -48.66430000     -34.52190000     -74.36130000
S      -42.24600000     -35.19750000     -72.58500000
S      -47.15280000     -32.52000000     -74.37580000
C      -43.02890000     -34.81930000     -70.90610000
H      -43.36170000     -35.79190000     -70.55550000
H      -42.14690000     -34.55960000     -70.29730000
C      -47.05360000     -32.09170000     -72.54370000
H      -46.88860000     -33.07580000     -72.02870000
H      -48.06360000     -31.75580000     -72.22610000
C      -45.83410000     -31.06080000     -72.17190000
H      -44.88060000     -31.51660000     -72.55750000
H      -45.86140000     -30.12240000     -72.68240000
C      -44.00940000     -33.71550000     -70.93500000
H      -44.84310000     -34.03400000     -71.52840000
H      -43.58260000     -32.88730000     -71.54640000
C      -44.42520000     -33.00690000     -69.66740000
C      -44.15260000     -33.40100000     -68.37360000
C      -45.18310000     -31.78790000     -69.64270000
H      -43.69300000     -34.33770000     -68.19410000
C      -45.28980000     -31.16170000     -68.37580000
C      -45.69540000     -30.85920000     -70.70760000
C      -46.23730000     -29.71370000     -70.16680000
S      -44.65250000     -32.19480000     -67.15250000
S      -46.06430000     -29.57920000     -68.42720000
H      -46.76330000     -28.95280000     -70.76440000
