40
Properties=species:S:1:pos:R:3 #=T CELL(abcABC):=T 1.889726e+02=T 90.00000=T Traj:=T positionsangstrom=T Step:=T 0=T Bead:=T pbc="F F F"
C      -47.45350000     -36.47560000     -72.75660000
C      -46.77200000     -35.46220000     -73.47850000
C      -45.37180000     -35.59090000     -73.60780000
C      -44.71080000     -36.60710000     -72.95920000
C      -45.43600000     -37.64880000     -72.38900000
C      -46.82120000     -37.59670000     -72.19240000
H      -48.52160000     -36.30540000     -72.64700000
H      -44.85840000     -34.78190000     -74.13970000
H      -44.83260000     -38.46880000     -71.98870000
H      -47.40010000     -38.33720000     -71.59570000
C      -43.17150000     -36.61040000     -72.90850000
H      -42.71040000     -37.15860000     -73.79240000
H      -42.74090000     -36.99680000     -72.02030000
C      -47.55260000     -34.43660000     -74.17320000
H      -47.62800000     -34.75770000     -75.24330000
H      -48.50840000     -34.44770000     -73.69220000
S      -42.43400000     -34.90400000     -73.07640000
S      -46.78790000     -32.68250000     -74.06640000
C      -42.78080000     -34.18570000     -71.40470000
H      -42.70930000     -35.04350000     -70.72970000
H      -41.98450000     -33.50650000     -71.15790000
C      -47.17460000     -32.05110000     -72.35780000
H      -47.07030000     -32.86370000     -71.61700000
H      -48.26030000     -31.77580000     -72.39790000
C      -46.30120000     -30.91380000     -72.00840000
H      -45.25570000     -31.09990000     -72.46940000
H      -46.61960000     -29.93570000     -72.37560000
C      -44.13740000     -33.37440000     -71.32380000
H      -44.97230000     -34.05920000     -71.51930000
H      -44.15410000     -32.61170000     -72.11720000
C      -44.32370000     -32.73500000     -70.00120000
C      -43.64230000     -33.00080000     -68.85480000
C      -45.26660000     -31.66820000     -69.72530000
H      -43.05190000     -33.96570000     -68.60800000
C      -45.33780000     -31.24310000     -68.41570000
C      -46.10110000     -30.83010000     -70.51180000
C      -46.83560000     -29.88160000     -69.80390000
S      -44.25220000     -32.15380000     -67.42970000
S      -46.27440000     -29.79410000     -68.09880000
H      -47.70720000     -29.25190000     -70.15260000
