40
Properties=species:S:1:pos:R:3 #=T CELL(abcABC):=T 1.889726e+02=T 90.00000=T Traj:=T positionsangstrom=T Step:=T 0=T Bead:=T pbc="F F F"
C      -47.44710000     -36.26930000     -72.79680000
C      -46.79920000     -35.31090000     -73.55740000
C      -45.41910000     -35.40460000     -73.75990000
C      -44.66510000     -36.40580000     -73.08640000
C      -45.33620000     -37.28070000     -72.19330000
C      -46.70750000     -37.22400000     -72.08270000
H      -48.53920000     -36.12710000     -72.67130000
H      -44.80560000     -34.82260000     -74.43150000
H      -44.84590000     -38.12120000     -71.69210000
H      -47.26390000     -37.93210000     -71.55100000
C      -43.22100000     -36.50960000     -73.21030000
H      -43.09880000     -36.54080000     -74.33500000
H      -42.91730000     -37.46420000     -72.74150000
C      -47.66210000     -34.29590000     -74.37860000
H      -47.61590000     -34.55100000     -75.42120000
H      -48.71290000     -34.24690000     -73.97630000
S      -42.25520000     -35.10240000     -72.58630000
S      -46.90080000     -32.64070000     -74.22510000
C      -43.02620000     -34.61260000     -71.02780000
H      -43.44380000     -35.47360000     -70.54900000
H      -42.19290000     -34.19780000     -70.44880000
C      -46.99800000     -32.30090000     -72.37000000
H      -46.56930000     -33.11310000     -71.78340000
H      -48.04110000     -32.11720000     -72.19340000
C      -46.19290000     -30.93870000     -72.11840000
H      -45.24690000     -31.09750000     -72.62380000
H      -46.81790000     -30.10070000     -72.63630000
C      -44.18270000     -33.68550000     -71.15710000
H      -45.05360000     -34.23310000     -71.56540000
H      -43.94240000     -32.95560000     -71.94350000
C      -44.51450000     -32.86690000     -69.93610000
C      -43.97420000     -33.29100000     -68.72900000
C      -45.22440000     -31.64610000     -69.77910000
H      -43.48850000     -34.21950000     -68.58730000
C      -45.34750000     -31.26480000     -68.46700000
C      -46.01400000     -30.76210000     -70.63230000
C      -46.55310000     -29.67380000     -69.97060000
S      -44.45620000     -32.33290000     -67.40280000
S      -46.07840000     -29.64680000     -68.27010000
H      -47.10460000     -28.83580000     -70.53220000
