40
Properties=species:S:1:pos:R:3 #=T CELL(abcABC):=T 1.889726e+02=T 90.00000=T Traj:=T positionsangstrom=T Step:=T 0=T Bead:=T pbc="F F F"
C      -47.55030000     -36.61350000     -72.55370000
C      -47.00270000     -35.59930000     -73.42550000
C      -45.64400000     -35.48270000     -73.60670000
C      -44.74150000     -36.37970000     -73.01230000
C      -45.30880000     -37.34360000     -72.18790000
C      -46.67670000     -37.51520000     -71.95370000
H      -48.64720000     -36.65510000     -72.33570000
H      -45.36710000     -34.71320000     -74.29010000
H      -44.64900000     -37.86840000     -71.53360000
H      -47.04680000     -38.17620000     -71.10040000
C      -43.27550000     -36.33990000     -73.12090000
H      -42.96700000     -36.78230000     -73.99190000
H      -42.80710000     -36.97740000     -72.32750000
C      -47.89810000     -34.55200000     -74.01640000
H      -48.04790000     -34.75810000     -75.07680000
H      -48.89840000     -34.46950000     -73.57120000
S      -42.32670000     -34.75450000     -73.07710000
S      -47.21860000     -32.81450000     -74.17750000
C      -42.57280000     -34.22880000     -71.29060000
H      -42.69640000     -35.09790000     -70.69710000
H      -41.62840000     -33.78000000     -71.00250000
C      -47.09630000     -32.48300000     -72.35300000
H      -46.63790000     -33.37300000     -71.85810000
H      -48.11690000     -32.39610000     -71.87090000
C      -46.23560000     -31.27070000     -72.06900000
H      -45.26530000     -31.31740000     -72.56020000
H      -46.67740000     -30.40170000     -72.56230000
C      -43.76950000     -33.19540000     -71.31260000
H      -44.61620000     -33.76510000     -71.65720000
H      -43.64410000     -32.35830000     -72.05950000
C      -44.07570000     -32.57110000     -69.98640000
C      -43.38070000     -32.81600000     -68.84530000
C      -45.10640000     -31.64860000     -69.74190000
H      -42.45540000     -33.38930000     -68.77560000
C      -45.18270000     -31.16940000     -68.39960000
C      -46.09850000     -30.99230000     -70.56670000
C      -46.93150000     -30.11780000     -69.89990000
S      -44.02440000     -32.00710000     -67.43660000
S      -46.45870000     -29.94230000     -68.19830000
H      -47.57700000     -29.51250000     -70.37030000
