40
Properties=species:S:1:pos:R:3 #=T CELL(abcABC):=T 1.889726e+02=T 90.00000=T Traj:=T positionsangstrom=T Step:=T 0=T Bead:=T pbc="F F F"
C      -47.47860000     -35.88300000     -72.75440000
C      -46.79820000     -35.17260000     -73.70020000
C      -45.40070000     -35.38410000     -73.80740000
C      -44.76260000     -36.40310000     -73.08640000
C      -45.51500000     -37.21460000     -72.16680000
C      -46.90210000     -36.91540000     -72.04890000
H      -48.53180000     -35.75070000     -72.76570000
H      -44.77280000     -34.83540000     -74.48750000
H      -45.13700000     -38.07970000     -71.65300000
H      -47.59130000     -37.51430000     -71.42290000
C      -43.30630000     -36.65540000     -73.27810000
H      -42.96330000     -36.63380000     -74.32300000
H      -42.84530000     -37.58040000     -72.83360000
C      -47.57600000     -34.15170000     -74.54030000
H      -47.39250000     -34.28680000     -75.71990000
H      -48.68210000     -34.41110000     -74.44060000
S      -42.29810000     -35.22110000     -72.43240000
S      -47.22630000     -32.35250000     -74.32470000
C      -42.99560000     -34.96320000     -70.75700000
H      -43.47920000     -35.87030000     -70.33930000
H      -42.25970000     -34.74800000     -69.97580000
C      -46.94850000     -32.22090000     -72.46660000
H      -47.09580000     -33.09160000     -71.86240000
H      -47.72100000     -31.54960000     -72.03470000
C      -45.58530000     -31.44820000     -72.25810000
H      -44.66370000     -32.00670000     -72.56840000
H      -45.60930000     -30.62640000     -72.84050000
C      -43.99520000     -33.82110000     -70.88310000
H      -44.98950000     -34.14550000     -71.22440000
H      -43.57270000     -33.13660000     -71.61110000
C      -44.36760000     -33.03340000     -69.59500000
C      -44.13500000     -33.35230000     -68.27500000
C      -45.01950000     -31.78330000     -69.73460000
H      -43.55940000     -34.19500000     -67.94990000
C      -45.21260000     -31.15750000     -68.47410000
C      -45.50430000     -31.00030000     -70.82540000
C      -46.06500000     -29.85090000     -70.38480000
S      -44.78980000     -32.15910000     -67.16840000
S      -46.09190000     -29.69740000     -68.66310000
H      -46.52610000     -29.04150000     -70.89510000
