40
Properties=species:S:1:pos:R:3 #=T CELL(abcABC):=T 1.889726e+02=T 90.00000=T Traj:=T positionsangstrom=T Step:=T 0=T Bead:=T pbc="F F F"
C      -47.60400000     -35.39510000     -72.80730000
C      -46.76220000     -34.97180000     -73.89990000
C      -45.38910000     -35.38710000     -73.90490000
C      -44.90320000     -36.31900000     -72.94950000
C      -45.84160000     -36.77690000     -71.90030000
C      -47.11550000     -36.33200000     -71.80280000
H      -48.60640000     -35.00880000     -72.77510000
H      -44.65100000     -35.16910000     -74.63090000
H      -45.53640000     -37.45700000     -71.12060000
H      -47.67420000     -36.58390000     -70.94690000
C      -43.47350000     -36.90630000     -73.08780000
H      -43.10780000     -36.87740000     -74.11760000
H      -43.47140000     -37.91420000     -72.73700000
C      -47.30120000     -34.03440000     -74.95780000
H      -46.87700000     -34.10940000     -76.02030000
H      -48.39860000     -33.96930000     -75.15630000
S      -42.20740000     -35.98300000     -72.05810000
S      -46.91130000     -32.19270000     -74.51180000
C      -43.24640000     -35.19020000     -70.71050000
H      -44.03780000     -35.82150000     -70.39840000
H      -42.58110000     -34.87760000     -69.84570000
C      -46.91210000     -32.11350000     -72.65160000
H      -46.82800000     -33.13890000     -72.26730000
H      -47.88590000     -31.66850000     -72.26270000
C      -45.81450000     -31.25890000     -72.26280000
H      -44.85600000     -31.61950000     -72.48780000
H      -45.85600000     -30.29110000     -72.83180000
C      -43.93670000     -33.77230000     -71.10650000
H      -44.81320000     -33.98660000     -71.76040000
H      -43.21380000     -33.19760000     -71.69990000
C      -44.41020000     -33.03160000     -69.87860000
C      -44.16620000     -33.46520000     -68.55370000
C      -45.11920000     -31.75120000     -69.78210000
H      -43.91310000     -34.47700000     -68.21140000
C      -45.30770000     -31.24100000     -68.51960000
C      -45.76490000     -30.92690000     -70.76120000
C      -46.30800000     -29.76090000     -70.18830000
S      -44.57390000     -32.33420000     -67.26930000
S      -45.98340000     -29.66120000     -68.45750000
H      -46.76930000     -28.93330000     -70.75110000
