40
Properties=species:S:1:pos:R:3 #=T CELL(abcABC):=T 1.889726e+02=T 90.00000=T Traj:=T positionsangstrom=T Step:=T 0=T Bead:=T pbc="F F F"
C      -48.15020000     -35.28650000     -72.74370000
C      -47.16650000     -34.80630000     -73.60650000
C      -45.87170000     -35.36400000     -73.62570000
C      -45.55150000     -36.31020000     -72.69510000
C      -46.47860000     -36.72570000     -71.71080000
C      -47.78220000     -36.21620000     -71.79880000
H      -49.23450000     -34.98650000     -72.85350000
H      -45.20880000     -35.07660000     -74.43510000
H      -46.24920000     -37.58100000     -71.03970000
H      -48.59200000     -36.48230000     -71.05910000
C      -44.13230000     -36.86040000     -72.67100000
H      -44.02290000     -37.41800000     -73.57990000
H      -43.98880000     -37.48830000     -71.82470000
C      -47.43630000     -33.66750000     -74.61110000
H      -47.36170000     -33.98350000     -75.65120000
H      -48.32830000     -33.19400000     -74.33970000
S      -42.65960000     -35.75050000     -72.68160000
S      -46.12560000     -32.30700000     -74.55270000
C      -42.87290000     -34.92540000     -71.02070000
H      -43.33930000     -35.64220000     -70.35140000
H      -41.87870000     -34.62380000     -70.74520000
C      -46.48490000     -31.77480000     -72.76130000
H      -46.60490000     -32.64630000     -72.13550000
H      -47.40820000     -31.26060000     -72.81270000
C      -45.33060000     -30.85720000     -72.17220000
H      -44.33490000     -31.26740000     -72.47620000
H      -45.38100000     -29.85320000     -72.59110000
C      -43.85400000     -33.71130000     -71.24680000
H      -44.76060000     -34.06730000     -71.85580000
H      -43.38990000     -32.98270000     -71.92130000
C      -44.13450000     -33.07340000     -69.94410000
C      -43.82830000     -33.67660000     -68.73100000
C      -44.93990000     -31.84040000     -69.80680000
H      -43.27390000     -34.53630000     -68.53420000
C      -45.13810000     -31.54280000     -68.44560000
C      -45.40590000     -30.84550000     -70.69460000
C      -45.96840000     -29.78080000     -69.96620000
S      -44.51770000     -32.74280000     -67.35470000
S      -45.91490000     -29.97830000     -68.30400000
H      -46.58500000     -29.00030000     -70.40070000
