40
Properties=species:S:1:pos:R:3 #=T CELL(abcABC):=T 1.889726e+02=T 90.00000=T Traj:=T positionsangstrom=T Step:=T 0=T Bead:=T pbc="F F F"
C      -43.19660000     -31.02830000     -75.30310000
C      -44.30090000     -31.61840000     -74.70090000
C      -44.22700000     -32.94990000     -74.30180000
C      -43.05490000     -33.73140000     -74.37430000
C      -41.93570000     -33.03900000     -74.94670000
C      -41.97180000     -31.69460000     -75.35280000
H      -43.12650000     -30.01090000     -75.53220000
H      -45.07640000     -33.44360000     -73.84430000
H      -40.97420000     -33.67960000     -75.01980000
H      -41.13610000     -31.15600000     -75.53170000
C      -43.11170000     -35.18770000     -74.04290000
H      -42.36390000     -35.76150000     -74.52200000
H      -44.10310000     -35.47840000     -74.25360000
C      -45.60910000     -30.85290000     -74.57180000
H      -45.55590000     -29.95670000     -75.24330000
H      -46.50130000     -31.38820000     -74.98500000
S      -42.78690000     -35.53100000     -72.25490000
S      -45.93180000     -30.30230000     -72.80960000
C      -44.26680000     -35.14320000     -71.31250000
H      -45.11770000     -34.86050000     -72.05160000
H      -44.50200000     -36.09250000     -70.89650000
C      -46.63720000     -31.82250000     -71.94120000
H      -45.87830000     -32.59260000     -72.10780000
H      -47.58620000     -32.18430000     -72.31060000
C      -46.66910000     -31.44710000     -70.45520000
H      -45.70670000     -31.22040000     -70.09440000
H      -47.22150000     -30.53050000     -70.18680000
C      -44.12710000     -34.10830000     -70.18470000
H      -44.28670000     -33.02240000     -70.52330000
H      -43.15060000     -34.18390000     -69.68570000
C      -45.14420000     -34.42050000     -69.09230000
C      -45.06850000     -35.47110000     -68.25660000
C      -46.46310000     -33.79840000     -68.96070000
H      -44.18890000     -36.07010000     -68.04820000
C      -47.27430000     -34.50370000     -68.04280000
C      -47.14520000     -32.71080000     -69.62670000
C      -48.48700000     -32.72390000     -69.30050000
S      -46.51510000     -35.85500000     -67.30600000
S      -48.86360000     -33.79500000     -67.89870000
H      -49.27800000     -32.02630000     -69.60410000
