40
Properties=species:S:1:pos:R:3 #=T CELL(abcABC):=T 1.889726e+02=T 90.00000=T Traj:=T positionsangstrom=T Step:=T 0=T Bead:=T pbc="F F F"
C      -47.17840000     -30.91890000     -68.48420000
C      -47.55110000     -31.13170000     -69.83500000
C      -46.72050000     -30.66710000     -70.82500000
C      -45.41970000     -30.12240000     -70.49830000
C      -45.03540000     -30.04910000     -69.15600000
C      -45.91320000     -30.49620000     -68.15760000
H      -47.90360000     -31.25280000     -67.71170000
H      -47.23230000     -30.88890000     -71.84740000
H      -43.99210000     -29.64900000     -68.94220000
H      -45.69260000     -30.35190000     -67.10030000
C      -44.51050000     -29.70260000     -71.62870000
H      -44.23560000     -28.65430000     -71.47590000
H      -45.14140000     -29.63950000     -72.57880000
C      -48.88120000     -31.63820000     -70.09270000
H      -49.29080000     -32.04550000     -69.13280000
H      -49.52860000     -30.79450000     -70.43100000
S      -42.94490000     -30.62920000     -71.90340000
S      -48.84060000     -32.79250000     -71.55500000
C      -43.39690000     -32.44040000     -71.92510000
H      -42.42200000     -32.92820000     -72.08410000
H      -43.62280000     -32.89770000     -70.95000000
C      -47.89190000     -34.35310000     -71.23160000
H      -47.81180000     -34.75710000     -72.23670000
H      -48.56400000     -35.15830000     -70.70950000
C      -46.55040000     -34.15660000     -70.41970000
H      -46.10160000     -33.14860000     -70.67910000
H      -46.73470000     -34.08900000     -69.31910000
C      -44.46490000     -32.88960000     -72.89890000
H      -44.44910000     -32.37760000     -73.83910000
H      -45.41850000     -32.65140000     -72.49160000
C      -44.21650000     -34.33330000     -72.97670000
C      -43.33260000     -34.91330000     -73.87920000
C      -44.59690000     -35.28000000     -71.90350000
H      -42.72880000     -34.33380000     -74.62690000
C      -43.91110000     -36.49020000     -72.01670000
C      -45.54700000     -35.27190000     -70.83550000
C      -45.57610000     -36.55970000     -70.21370000
S      -42.77630000     -36.55200000     -73.47990000
S      -44.36810000     -37.67660000     -70.90240000
H      -46.23600000     -36.73900000     -69.39080000
