40
Properties=species:S:1:pos:R:3 #=T CELL(abcABC):=T 1.889726e+02=T 90.00000=T Traj:=T positionsangstrom=T Step:=T 0=T Bead:=T pbc="F F F"
C      -48.12100000     -34.57120000     -72.55160000
C      -47.39270000     -34.20620000     -73.72550000
C      -46.38620000     -35.02490000     -74.18130000
C      -45.88730000     -36.09810000     -73.36980000
C      -46.52030000     -36.34790000     -72.17090000
C      -47.63080000     -35.66070000     -71.76360000
H      -48.94190000     -34.00200000     -72.21980000
H      -45.78590000     -34.74410000     -75.06780000
H      -46.07220000     -37.08710000     -71.54580000
H      -48.19490000     -35.81460000     -70.83000000
C      -44.65000000     -36.84680000     -73.79810000
H      -44.59230000     -36.91430000     -74.87890000
H      -44.43050000     -37.78350000     -73.36760000
C      -47.73610000     -32.93210000     -74.53310000
H      -47.80740000     -33.06020000     -75.67140000
H      -48.78110000     -32.52870000     -74.18130000
S      -43.15840000     -35.70430000     -73.31790000
S      -46.40970000     -31.62350000     -74.21090000
C      -43.32950000     -35.39070000     -71.46900000
H      -44.14630000     -35.93460000     -71.03670000
H      -42.42820000     -35.65310000     -71.05490000
C      -46.41790000     -31.62020000     -72.44390000
H      -46.35860000     -32.63860000     -71.99290000
H      -47.32060000     -31.21600000     -71.95820000
C      -45.17530000     -30.92810000     -71.85200000
H      -44.30220000     -31.33440000     -72.33350000
H      -45.11620000     -29.89460000     -72.14410000
C      -43.56950000     -33.90980000     -71.19200000
H      -44.40980000     -33.69220000     -71.76510000
H      -42.87200000     -33.29830000     -71.68410000
C      -43.76350000     -33.40970000     -69.78990000
C      -43.21810000     -33.95890000     -68.62590000
C      -44.61740000     -32.19990000     -69.55620000
H      -42.67260000     -34.83730000     -68.47790000
C      -44.87990000     -32.09430000     -68.19010000
C      -45.12410000     -31.11280000     -70.35980000
C      -45.77370000     -30.19210000     -69.50000000
S      -44.00740000     -33.21010000     -67.20790000
S      -45.74930000     -30.60290000     -67.80470000
H      -46.27960000     -29.19770000     -69.80270000
