40
Properties=species:S:1:pos:R:3 #=T CELL(abcABC):=T 1.889726e+02=T 90.00000=T Traj:=T positionsangstrom=T Step:=T 0=T Bead:=T pbc="F F F"
C      -47.88890000     -35.26010000     -72.63390000
C      -46.96070000     -34.82160000     -73.66200000
C      -45.70840000     -35.34420000     -73.73920000
C      -45.33720000     -36.39190000     -72.76700000
C      -46.23190000     -36.84480000     -71.81000000
C      -47.53610000     -36.22500000     -71.73710000
H      -48.88460000     -34.86310000     -72.57580000
H      -45.03810000     -34.88580000     -74.44020000
H      -46.08210000     -37.60920000     -71.06210000
H      -48.22910000     -36.55030000     -70.92070000
C      -43.99990000     -37.09790000     -72.95220000
H      -43.73050000     -37.48670000     -73.95670000
H      -43.77210000     -37.89560000     -72.22080000
C      -47.37800000     -33.76280000     -74.60660000
H      -47.17670000     -34.26040000     -75.69520000
H      -48.52560000     -33.50320000     -74.46130000
S      -42.64560000     -35.76640000     -72.73030000
S      -46.23920000     -32.37770000     -74.53050000
C      -43.00490000     -35.01180000     -71.08610000
H      -43.49740000     -35.80210000     -70.46950000
H      -42.08900000     -34.85310000     -70.51250000
C      -46.64770000     -31.76820000     -72.79910000
H      -47.02100000     -32.64030000     -72.16660000
H      -47.49190000     -31.04360000     -72.90740000
C      -45.40340000     -31.02130000     -72.13190000
H      -44.48990000     -31.54510000     -72.34190000
H      -45.39270000     -30.07930000     -72.57580000
C      -43.87350000     -33.73790000     -71.10020000
H      -44.75730000     -33.89160000     -71.72980000
H      -43.37430000     -32.89080000     -71.67180000
C      -44.33880000     -33.17400000     -69.81870000
C      -44.08750000     -33.62520000     -68.51720000
C      -44.99360000     -31.83130000     -69.66660000
H      -43.50700000     -34.46970000     -68.24020000
C      -45.12440000     -31.36310000     -68.41580000
C      -45.49270000     -30.91770000     -70.67050000
C      -46.05190000     -29.77370000     -70.13400000
S      -44.50030000     -32.48140000     -67.24350000
S      -46.01800000     -29.85290000     -68.38950000
H      -46.55690000     -28.94110000     -70.67850000
