40
Properties=species:S:1:pos:R:3 #=T CELL(abcABC):=T 1.889726e+02=T 90.00000=T Traj:=T positionsangstrom=T Step:=T 0=T Bead:=T pbc="F F F"
C      -48.71780000     -34.93870000     -73.64790000
C      -47.64210000     -34.00150000     -73.79840000
C      -46.34160000     -34.47590000     -73.85220000
C      -46.09090000     -35.85890000     -73.73440000
C      -47.17400000     -36.74370000     -73.52600000
C      -48.47800000     -36.25520000     -73.56850000
H      -49.74690000     -34.50850000     -73.54230000
H      -45.50240000     -33.76620000     -74.05550000
H      -47.06550000     -37.84170000     -73.53320000
H      -49.37440000     -36.80030000     -73.38500000
C      -44.73310000     -36.45650000     -74.03070000
H      -44.80320000     -36.80230000     -75.01290000
H      -44.56050000     -37.24910000     -73.36520000
C      -47.97210000     -32.53870000     -74.04600000
H      -48.15230000     -32.38720000     -75.16770000
H      -48.85900000     -32.25120000     -73.42610000
S      -43.28930000     -35.38470000     -73.65730000
S      -46.52470000     -31.31010000     -73.63590000
C      -43.41850000     -35.25400000     -71.82610000
H      -44.04780000     -35.97870000     -71.41460000
H      -42.44020000     -35.44030000     -71.51250000
C      -46.50290000     -31.22300000     -71.74310000
H      -46.79590000     -32.22810000     -71.39960000
H      -47.37290000     -30.59270000     -71.52970000
C      -45.17060000     -30.66160000     -71.27390000
H      -44.47860000     -31.02720000     -72.01570000
H      -45.17050000     -29.62930000     -71.42640000
C      -43.93860000     -33.83810000     -71.41570000
H      -44.96930000     -33.72380000     -71.74580000
H      -43.29070000     -33.05310000     -71.93220000
C      -43.93690000     -33.56650000     -69.85680000
C      -43.56330000     -34.42750000     -68.86660000
C      -44.40470000     -32.29760000     -69.26560000
H      -43.26500000     -35.40460000     -68.97960000
C      -44.23250000     -32.26590000     -67.90150000
C      -44.86300000     -31.05310000     -69.83510000
C      -45.24430000     -30.22180000     -68.80420000
S      -43.68770000     -33.81390000     -67.22960000
S      -44.83310000     -30.84930000     -67.22660000
H      -45.52350000     -29.11790000     -68.88830000
