40
Properties=species:S:1:pos:R:3 #=T CELL(abcABC):=T 1.889726e+02=T 90.00000=T Traj:=T positionsangstrom=T Step:=T 0=T Bead:=T pbc="F F F"
C      -48.47490000     -34.90640000     -73.07300000
C      -47.47100000     -34.11690000     -73.60130000
C      -46.18300000     -34.61950000     -73.82510000
C      -45.89630000     -35.96000000     -73.55570000
C      -46.86630000     -36.69500000     -72.89170000
C      -48.16880000     -36.23730000     -72.67300000
H      -49.50100000     -34.49000000     -72.98750000
H      -45.37480000     -34.05930000     -74.35990000
H      -46.73900000     -37.74670000     -72.63350000
H      -48.92490000     -36.79500000     -72.12770000
C      -44.51400000     -36.53320000     -73.96240000
H      -44.40530000     -36.79250000     -75.03400000
H      -44.44700000     -37.47160000     -73.35020000
C      -47.91090000     -32.75340000     -74.08540000
H      -48.30480000     -32.84470000     -75.06710000
H      -48.73150000     -32.35920000     -73.46880000
S      -43.17400000     -35.50600000     -73.47940000
S      -46.63220000     -31.36310000     -73.80960000
C      -43.50980000     -35.17840000     -71.69150000
H      -44.47320000     -35.73520000     -71.53760000
H      -42.78200000     -35.74800000     -71.12600000
C      -46.19620000     -31.75550000     -72.08030000
H      -46.01730000     -32.85000000     -72.02390000
H      -47.12040000     -31.56540000     -71.52080000
C      -45.02270000     -30.79870000     -71.59400000
H      -44.08690000     -30.92670000     -72.16760000
H      -45.26480000     -29.76730000     -71.76890000
C      -43.42730000     -33.73190000     -71.36100000
H      -44.06920000     -33.20510000     -72.09730000
H      -42.39900000     -33.48500000     -71.65170000
C      -43.78170000     -33.36680000     -69.90340000
C      -43.53590000     -34.24250000     -68.88490000
C      -44.35320000     -32.15170000     -69.44540000
H      -43.21800000     -35.31600000     -68.89160000
C      -44.52130000     -32.16990000     -68.04270000
C      -44.88190000     -30.99230000     -70.10780000
C      -45.47170000     -30.12090000     -69.23420000
S      -44.07970000     -33.64210000     -67.31330000
S      -45.40010000     -30.67080000     -67.54840000
H      -45.96660000     -29.23880000     -69.42510000
