40
Properties=species:S:1:pos:R:3 #=T CELL(abcABC):=T 1.889726e+02=T 90.00000=T Traj:=T positionsangstrom=T Step:=T 0=T Bead:=T pbc="F F F"
C      -48.68830000     -34.92560000     -73.40980000
C      -47.66490000     -34.00690000     -73.80250000
C      -46.31820000     -34.52040000     -73.92450000
C      -46.03450000     -35.87910000     -73.84590000
C      -47.09130000     -36.73220000     -73.52160000
C      -48.36430000     -36.26500000     -73.26600000
H      -49.73110000     -34.64570000     -73.31350000
H      -45.58490000     -33.78200000     -74.18420000
H      -46.80100000     -37.74650000     -73.29560000
H      -49.17470000     -36.91340000     -72.95390000
C      -44.69840000     -36.47690000     -73.87600000
H      -44.38110000     -36.84040000     -74.93050000
H      -44.62830000     -37.43740000     -73.25800000
C      -48.01150000     -32.54760000     -73.90880000
H      -48.52910000     -32.11070000     -74.75490000
H      -48.75290000     -32.31050000     -73.16610000
S      -43.36970000     -35.26500000     -73.57380000
S      -46.58070000     -31.34940000     -73.78130000
C      -43.24730000     -35.20710000     -71.72620000
H      -43.82020000     -35.90010000     -71.06800000
H      -42.15740000     -35.30970000     -71.37650000
C      -46.38070000     -31.27850000     -71.87440000
H      -46.64470000     -32.20660000     -71.36220000
H      -47.12120000     -30.53240000     -71.54020000
C      -44.95970000     -30.92440000     -71.39380000
H      -44.17930000     -31.58680000     -71.85460000
H      -44.55860000     -29.86360000     -71.66750000
C      -43.70830000     -33.79420000     -71.30840000
H      -44.63210000     -33.62800000     -71.83530000
H      -43.06420000     -32.99170000     -71.73120000
C      -43.81010000     -33.55340000     -69.85550000
C      -43.44770000     -34.40620000     -68.87330000
C      -44.40320000     -32.33510000     -69.31640000
H      -42.93690000     -35.34890000     -69.01800000
C      -44.45510000     -32.30360000     -67.93810000
C      -44.84230000     -31.10340000     -69.93890000
C      -45.26190000     -30.18740000     -68.98790000
S      -43.84690000     -33.82340000     -67.20920000
S      -45.02080000     -30.76590000     -67.33060000
H      -45.70220000     -29.16070000     -69.06830000
