40
Properties=species:S:1:pos:R:3 #=T CELL(abcABC):=T 1.889726e+02=T 90.00000=T Traj:=T positionsangstrom=T Step:=T 0=T Bead:=T pbc="F F F"
C      -44.08650000     -30.39630000     -73.03910000
C      -43.00410000     -31.12540000     -72.50030000
C      -42.95200000     -31.33220000     -71.07790000
C      -43.83570000     -30.68970000     -70.23570000
C      -44.86210000     -29.93230000     -70.83000000
C      -45.01060000     -29.79390000     -72.20940000
H      -44.30390000     -30.17160000     -74.10350000
H      -42.23050000     -32.05000000     -70.70990000
H      -45.47950000     -29.45720000     -70.18970000
H      -45.85490000     -29.23450000     -72.62300000
C      -43.62930000     -30.63660000     -68.74680000
H      -44.26830000     -29.81360000     -68.35430000
H      -42.58740000     -30.29660000     -68.62060000
C      -41.95750000     -31.82070000     -73.40650000
H      -41.87230000     -31.43920000     -74.41610000
H      -40.95240000     -31.65940000     -73.00540000
S      -43.86820000     -32.26060000     -67.86940000
S      -42.23300000     -33.68710000     -73.28890000
C      -45.48450000     -32.91950000     -68.42440000
H      -45.90930000     -33.38190000     -67.49970000
H      -46.25190000     -32.18840000     -68.74420000
C      -44.02030000     -33.96370000     -73.14700000
H      -44.47430000     -33.89450000     -74.14240000
H      -44.53320000     -33.16580000     -72.49720000
C      -44.30430000     -35.32710000     -72.53650000
H      -43.86070000     -36.11200000     -73.13460000
H      -43.79080000     -35.39240000     -71.54010000
C      -45.35010000     -33.99760000     -69.56100000
H      -44.80520000     -34.84700000     -69.14760000
H      -44.68700000     -33.58010000     -70.29240000
C      -46.70790000     -34.45830000     -70.05530000
C      -47.93390000     -34.19750000     -69.51510000
C      -46.80430000     -35.13840000     -71.34590000
H      -48.14470000     -33.87590000     -68.50700000
C      -48.11490000     -35.41260000     -71.73590000
C      -45.81860000     -35.53790000     -72.38720000
C      -46.54360000     -36.17210000     -73.43520000
S      -49.24620000     -34.82850000     -70.50280000
S      -48.27980000     -36.18550000     -73.27790000
H      -46.08720000     -36.57210000     -74.40690000
