40
Properties=species:S:1:pos:R:3 #=T CELL(abcABC):=T 1.889726e+02=T 90.00000=T Traj:=T positionsangstrom=T Step:=T 0=T Bead:=T pbc="F F F"
C      -48.73010000     -34.52770000     -73.12240000
C      -47.75110000     -33.75510000     -73.75760000
C      -46.49530000     -34.30560000     -74.01460000
C      -46.27860000     -35.65290000     -73.63760000
C      -47.24590000     -36.39530000     -72.89060000
C      -48.49150000     -35.79080000     -72.66620000
H      -49.65480000     -34.01770000     -72.76680000
H      -45.73670000     -33.61970000     -74.50780000
H      -46.95060000     -37.41730000     -72.88700000
H      -49.27350000     -36.35730000     -72.14270000
C      -44.88040000     -36.29000000     -73.97080000
H      -45.18020000     -36.55390000     -75.03110000
H      -44.66280000     -37.19820000     -73.47100000
C      -48.20260000     -32.34370000     -74.03470000
H      -48.40000000     -32.18830000     -75.09720000
H      -49.22010000     -32.02030000     -73.53820000
S      -43.38410000     -35.19830000     -73.98130000
S      -46.88130000     -31.08500000     -73.57760000
C      -42.88700000     -34.89550000     -72.20050000
H      -42.81410000     -35.86070000     -71.67110000
H      -41.87210000     -34.53070000     -72.15330000
C      -46.65330000     -31.68920000     -71.77930000
H      -46.37820000     -32.72810000     -71.64640000
H      -47.63710000     -31.69630000     -71.26400000
C      -45.54690000     -30.86720000     -71.07620000
H      -44.63100000     -30.77800000     -71.66490000
H      -45.96390000     -29.80390000     -70.92380000
C      -43.89630000     -33.99200000     -71.48870000
H      -45.00500000     -34.38140000     -71.66630000
H      -43.95340000     -33.07490000     -72.09540000
C      -43.69070000     -33.66970000     -70.07430000
C      -42.89670000     -34.42610000     -69.22380000
C      -44.28700000     -32.53580000     -69.37170000
H      -42.23120000     -35.18240000     -69.54460000
C      -44.01550000     -32.54270000     -68.00570000
C      -45.20210000     -31.42220000     -69.75300000
C      -45.70470000     -30.75040000     -68.62660000
S      -42.92440000     -33.82910000     -67.54400000
S      -44.96560000     -31.34540000     -67.18800000
H      -46.42680000     -29.91100000     -68.50790000
