40
Properties=species:S:1:pos:R:3 #=T CELL(abcABC):=T 1.889726e+02=T 90.00000=T Traj:=T positionsangstrom=T Step:=T 0=T Bead:=T pbc="F F F"
C      -48.25440000     -34.25980000     -72.48840000
C      -47.67930000     -33.61850000     -73.58200000
C      -46.59480000     -34.19860000     -74.17860000
C      -46.10940000     -35.46250000     -73.74390000
C      -46.71830000     -36.10610000     -72.69290000
C      -47.81800000     -35.51580000     -72.01120000
H      -49.07700000     -33.80010000     -72.00300000
H      -46.00640000     -33.62390000     -74.91270000
H      -46.28450000     -37.00040000     -72.23530000
H      -48.37820000     -35.96690000     -71.19300000
C      -44.88450000     -36.04950000     -74.40000000
H      -45.13130000     -36.20410000     -75.46860000
H      -44.56510000     -36.94850000     -73.92420000
C      -48.07050000     -32.19420000     -74.01520000
H      -47.83880000     -32.02890000     -75.02330000
H      -49.18860000     -32.15850000     -73.92660000
S      -43.36120000     -34.94590000     -74.24150000
S      -47.40300000     -30.78160000     -73.08240000
C      -43.19880000     -34.96370000     -72.40690000
H      -43.85910000     -35.74950000     -71.91560000
H      -42.16750000     -35.06350000     -72.22570000
C      -47.06080000     -31.30560000     -71.36290000
H      -47.15850000     -32.40320000     -71.21230000
H      -47.85840000     -30.95090000     -70.60870000
C      -45.67540000     -30.87960000     -70.92570000
H      -45.00850000     -31.20160000     -71.70130000
H      -45.54990000     -29.79040000     -70.81750000
C      -43.54950000     -33.55140000     -71.92020000
H      -44.49490000     -33.16370000     -72.36460000
H      -42.79650000     -32.86440000     -72.26310000
C      -43.59910000     -33.53350000     -70.39730000
C      -42.74210000     -34.39160000     -69.74710000
C      -44.51060000     -32.81740000     -69.49040000
H      -41.89200000     -34.81910000     -70.27440000
C      -44.19610000     -33.13020000     -68.13980000
C      -45.34060000     -31.60420000     -69.59590000
C      -45.67790000     -31.06660000     -68.38510000
S      -42.86870000     -34.18870000     -68.00160000
S      -45.04150000     -32.09970000     -67.05380000
H      -46.22950000     -30.16680000     -68.19990000
