40
Properties=species:S:1:pos:R:3 #=T CELL(abcABC):=T 1.889726e+02=T 90.00000=T Traj:=T positionsangstrom=T Step:=T 0=T Bead:=T pbc="F F F"
C      -48.07320000     -34.31200000     -72.11000000
C      -47.91570000     -33.51820000     -73.26890000
C      -46.87840000     -33.84660000     -74.13480000
C      -46.15940000     -35.00860000     -74.01170000
C      -46.39000000     -35.80280000     -72.89280000
C      -47.35040000     -35.50470000     -71.95270000
H      -48.86160000     -34.01990000     -71.42500000
H      -46.63990000     -33.20390000     -74.95240000
H      -45.65710000     -36.66170000     -72.69210000
H      -47.55020000     -36.12920000     -71.07550000
C      -45.01160000     -35.25890000     -74.99780000
H      -45.15930000     -34.91300000     -76.04500000
H      -44.77500000     -36.35010000     -74.96070000
C      -48.62520000     -32.17450000     -73.33510000
H      -48.96490000     -31.89180000     -74.38780000
H      -49.52460000     -32.21920000     -72.67280000
S      -43.40880000     -34.45480000     -74.52150000
S      -47.44110000     -30.82510000     -72.86940000
C      -43.35900000     -34.89170000     -72.79000000
H      -44.17380000     -35.64660000     -72.61350000
H      -42.43310000     -35.40560000     -72.57010000
C      -46.85160000     -31.27770000     -71.15520000
H      -47.05600000     -32.30100000     -70.90990000
H      -47.44260000     -30.62350000     -70.36860000
C      -45.34400000     -31.06120000     -70.84520000
H      -44.72340000     -31.44670000     -71.71930000
H      -45.28040000     -29.98470000     -70.80080000
C      -43.67670000     -33.64780000     -71.94380000
H      -44.68740000     -33.37790000     -72.27050000
H      -43.03320000     -32.85760000     -72.34870000
C      -43.62760000     -33.78200000     -70.45110000
C      -43.05210000     -34.83540000     -69.81170000
C      -44.30680000     -32.89630000     -69.49690000
H      -42.54850000     -35.72650000     -70.24810000
C      -44.19060000     -33.36090000     -68.19310000
C      -44.93510000     -31.66590000     -69.56070000
C      -45.08820000     -31.09140000     -68.36510000
S      -43.36200000     -34.89060000     -68.09690000
S      -44.76040000     -32.14400000     -66.95400000
H      -45.56060000     -30.13350000     -68.21500000
