40
Properties=species:S:1:pos:R:3 #=T CELL(abcABC):=T 1.889726e+02=T 90.00000=T Traj:=T positionsangstrom=T Step:=T 0=T Bead:=T pbc="F F F"
C      -48.06460000     -34.39860000     -72.09570000
C      -47.91200000     -33.47910000     -73.10760000
C      -46.93360000     -33.84310000     -74.10800000
C      -46.16480000     -34.99050000     -74.08830000
C      -46.40600000     -35.89050000     -73.08060000
C      -47.35890000     -35.64460000     -72.10980000
H      -48.84710000     -34.20990000     -71.34650000
H      -46.79590000     -33.20650000     -74.98960000
H      -45.86810000     -36.81960000     -72.97120000
H      -47.57640000     -36.36790000     -71.31560000
C      -45.05650000     -35.27930000     -75.07580000
H      -45.37350000     -35.08940000     -76.11080000
H      -44.86480000     -36.36010000     -74.97500000
C      -48.60360000     -32.15240000     -73.17180000
H      -48.96760000     -31.87740000     -74.11560000
H      -49.43930000     -32.09790000     -72.47930000
S      -43.54710000     -34.28640000     -74.64520000
S      -47.50120000     -30.63510000     -72.61330000
C      -42.99070000     -34.59160000     -72.88940000
H      -43.12090000     -35.70550000     -72.66510000
H      -41.91880000     -34.39370000     -72.91400000
C      -46.73550000     -31.38930000     -71.08730000
H      -46.94190000     -32.38680000     -71.23270000
H      -47.38680000     -31.08400000     -70.30270000
C      -45.32210000     -30.91310000     -70.83810000
H      -44.68490000     -31.03670000     -71.71090000
H      -45.26120000     -29.82590000     -70.53050000
C      -43.64280000     -33.54110000     -71.97820000
H      -44.69400000     -33.27540000     -72.30660000
H      -43.04390000     -32.61500000     -72.05640000
C      -43.73490000     -33.98770000     -70.45860000
C      -43.53930000     -35.20290000     -69.82620000
C      -44.08760000     -32.97010000     -69.50870000
H      -43.17230000     -36.16470000     -70.19240000
C      -43.95770000     -33.38960000     -68.13380000
C      -44.77080000     -31.68500000     -69.64600000
C      -44.99650000     -31.14180000     -68.40490000
S      -43.57220000     -35.01110000     -68.01020000
S      -44.57860000     -32.17930000     -67.05630000
H      -45.54600000     -30.22220000     -68.29600000
