40
Properties=species:S:1:pos:R:3 #=T CELL(abcABC):=T 1.889726e+02=T 90.00000=T Traj:=T positionsangstrom=T Step:=T 0=T Bead:=T pbc="F F F"
C      -48.64480000     -34.35760000     -72.97850000
C      -47.75330000     -33.70930000     -73.84910000
C      -46.56010000     -34.39730000     -74.27650000
C      -46.17250000     -35.50450000     -73.58370000
C      -47.11390000     -36.16610000     -72.67740000
C      -48.27140000     -35.58480000     -72.39560000
H      -49.57200000     -33.87760000     -72.63220000
H      -45.88020000     -33.96850000     -74.96980000
H      -46.76830000     -37.04720000     -72.14850000
H      -48.91350000     -36.14990000     -71.71460000
C      -44.86000000     -36.17260000     -73.88530000
H      -44.87530000     -36.67750000     -74.83800000
H      -44.74680000     -36.86240000     -73.03440000
C      -48.02170000     -32.30710000     -74.26610000
H      -47.77500000     -32.03440000     -75.36020000
H      -49.10030000     -32.14260000     -74.31940000
S      -43.41730000     -35.01370000     -74.04000000
S      -47.23530000     -31.02590000     -73.21360000
C      -42.98720000     -34.92440000     -72.24440000
H      -43.28360000     -35.83880000     -71.76950000
H      -41.88050000     -34.98640000     -72.09250000
C      -46.82670000     -31.82670000     -71.60250000
H      -46.54530000     -32.90940000     -71.72200000
H      -47.68440000     -31.59960000     -70.93650000
C      -45.55610000     -30.99960000     -71.08590000
H      -44.67410000     -31.10130000     -71.76850000
H      -45.84040000     -29.95840000     -71.10420000
C      -43.56390000     -33.54330000     -71.74540000
H      -44.55100000     -33.45110000     -72.11420000
H      -42.86370000     -32.80120000     -72.18780000
C      -43.56390000     -33.47630000     -70.25020000
C      -42.82710000     -34.35670000     -69.48040000
C      -44.20180000     -32.48380000     -69.42550000
H      -42.44060000     -35.32170000     -69.79280000
C      -44.01570000     -32.73360000     -68.09090000
C      -45.18910000     -31.40260000     -69.69830000
C      -45.71200000     -30.88240000     -68.53500000
S      -42.93660000     -34.02790000     -67.76870000
S      -45.01800000     -31.79330000     -67.12010000
H      -46.30610000     -29.96860000     -68.31050000
