40
Properties=species:S:1:pos:R:3 #=T CELL(abcABC):=T 1.889726e+02=T 90.00000=T Traj:=T positionsangstrom=T Step:=T 0=T Bead:=T pbc="F F F"
C      -48.77200000     -34.51830000     -72.94470000
C      -47.87560000     -33.72300000     -73.77390000
C      -46.57900000     -34.15260000     -74.00480000
C      -46.19700000     -35.46520000     -73.56270000
C      -47.08080000     -36.21740000     -72.78260000
C      -48.37930000     -35.77580000     -72.53920000
H      -49.81380000     -34.13720000     -72.81480000
H      -45.76890000     -33.65830000     -74.54280000
H      -46.73690000     -37.18670000     -72.35760000
H      -49.13690000     -36.33450000     -71.98460000
C      -45.00860000     -36.20110000     -73.95600000
H      -45.14250000     -36.79290000     -74.87320000
H      -44.73650000     -36.93840000     -73.14620000
C      -48.15050000     -32.34240000     -74.31090000
H      -47.85990000     -32.29660000     -75.33900000
H      -49.18780000     -32.07380000     -74.12620000
S      -43.36010000     -35.26780000     -74.05890000
S      -47.06250000     -31.04760000     -73.42730000
C      -42.81820000     -34.86840000     -72.31540000
H      -42.79540000     -35.80980000     -71.71170000
H      -41.82140000     -34.39930000     -72.38960000
C      -46.68280000     -31.77560000     -71.78830000
H      -46.40450000     -32.85640000     -71.92410000
H      -47.53820000     -31.73370000     -71.19520000
C      -45.54500000     -30.95710000     -71.08540000
H      -44.69970000     -31.09520000     -71.73720000
H      -45.75750000     -29.90800000     -70.99130000
C      -43.72230000     -33.79170000     -71.61960000
H      -44.77100000     -34.06850000     -71.67510000
H      -43.72050000     -32.82600000     -72.09170000
C      -43.55230000     -33.52650000     -70.13140000
C      -42.71980000     -34.25340000     -69.29570000
C      -44.31490000     -32.58170000     -69.36560000
H      -42.05290000     -35.02740000     -69.61380000
C      -44.20660000     -32.75950000     -68.02590000
C      -45.16750000     -31.47220000     -69.74560000
C      -45.59630000     -30.77610000     -68.61560000
S      -42.96090000     -33.94800000     -67.60030000
S      -45.00930000     -31.46160000     -67.12760000
H      -46.30210000     -29.94790000     -68.48850000
