40
Properties=species:S:1:pos:R:3 #=T CELL(abcABC):=T 1.889726e+02=T 90.00000=T Traj:=T positionsangstrom=T Step:=T 0=T Bead:=T pbc="F F F"
C      -48.14890000     -34.28500000     -72.16130000
C      -47.82000000     -33.44210000     -73.28650000
C      -46.83690000     -33.89110000     -74.14270000
C      -46.13430000     -35.08860000     -73.95890000
C      -46.44730000     -35.86090000     -72.84580000
C      -47.46910000     -35.49070000     -71.95240000
H      -48.92670000     -33.89190000     -71.43130000
H      -46.59530000     -33.26680000     -74.99380000
H      -45.96210000     -36.85300000     -72.74330000
H      -47.82330000     -36.07060000     -71.08920000
C      -45.05990000     -35.48440000     -74.88670000
H      -45.25620000     -34.99920000     -75.84480000
H      -45.08960000     -36.51290000     -75.11570000
C      -48.52440000     -32.14190000     -73.38770000
H      -48.78420000     -31.92770000     -74.43840000
H      -49.38070000     -32.10240000     -72.77640000
S      -43.33790000     -34.87400000     -74.48350000
S      -47.29750000     -30.78690000     -72.98840000
C      -43.05700000     -34.86080000     -72.61710000
H      -43.39640000     -35.76760000     -72.20950000
H      -41.93770000     -34.68010000     -72.60140000
C      -46.93900000     -31.17040000     -71.19020000
H      -47.03320000     -32.29020000     -71.16980000
H      -47.60030000     -30.79920000     -70.44050000
C      -45.52820000     -30.79950000     -70.80220000
H      -44.80850000     -30.93930000     -71.59060000
H      -45.36220000     -29.79430000     -70.53880000
C      -43.70790000     -33.66250000     -71.98910000
H      -44.70120000     -33.54280000     -72.36600000
H      -43.23470000     -32.71170000     -72.33540000
C      -43.64620000     -33.79250000     -70.48650000
C      -43.13810000     -34.87060000     -69.81360000
C      -44.39870000     -32.85310000     -69.48580000
H      -42.61320000     -35.77220000     -70.16700000
C      -44.07440000     -33.17390000     -68.19160000
C      -45.16770000     -31.66520000     -69.57120000
C      -45.60380000     -31.27190000     -68.36210000
S      -43.08160000     -34.54780000     -68.00430000
S      -44.91000000     -32.17320000     -67.04210000
H      -46.23150000     -30.39340000     -68.19460000
