40
Properties=species:S:1:pos:R:3 #=T CELL(abcABC):=T 1.889726e+02=T 90.00000=T Traj:=T positionsangstrom=T Step:=T 0=T Bead:=T pbc="F F F"
C      -47.41990000     -30.56750000     -68.90020000
C      -47.59470000     -30.88840000     -70.23990000
C      -46.50300000     -30.70790000     -71.03740000
C      -45.23290000     -30.20360000     -70.62920000
C      -45.09590000     -29.96950000     -69.26090000
C      -46.18660000     -30.18570000     -68.38650000
H      -48.28680000     -30.51650000     -68.31970000
H      -46.61230000     -31.01070000     -72.11530000
H      -44.13060000     -29.64730000     -68.85190000
H      -46.01010000     -29.94890000     -67.35840000
C      -44.06140000     -29.85210000     -71.56040000
H      -43.82330000     -28.82680000     -71.53930000
H      -44.39130000     -30.25610000     -72.57890000
C      -48.86430000     -31.54680000     -70.75860000
H      -49.25600000     -32.19770000     -70.02160000
H      -49.60720000     -30.77280000     -70.95200000
S      -42.46780000     -30.60040000     -71.10940000
S      -48.77310000     -32.35180000     -72.44210000
C      -42.90200000     -32.25530000     -70.69960000
H      -41.98590000     -32.66120000     -70.41400000
H      -43.43820000     -32.30460000     -69.69840000
C      -47.71440000     -33.80090000     -71.97340000
H      -48.28950000     -34.70370000     -72.01810000
H      -47.25440000     -33.74770000     -71.01090000
C      -46.65140000     -34.01210000     -73.06570000
H      -47.20640000     -34.12080000     -73.95910000
H      -45.95160000     -33.11080000     -73.02090000
C      -43.50620000     -33.16590000     -71.70290000
H      -42.99620000     -33.16690000     -72.70330000
H      -44.47360000     -32.72160000     -72.06240000
C      -43.68300000     -34.56240000     -71.26500000
C      -42.90100000     -35.23260000     -70.36920000
C      -44.56960000     -35.47890000     -71.99180000
H      -42.16460000     -34.79720000     -69.72850000
C      -44.25170000     -36.77950000     -71.74430000
C      -45.74600000     -35.27250000     -72.83270000
C      -46.28330000     -36.51220000     -73.20620000
S      -43.03530000     -36.96730000     -70.59380000
S      -45.35640000     -37.92160000     -72.55810000
H      -47.06620000     -36.78440000     -73.84160000
