40
Properties=species:S:1:pos:R:3 #=T CELL(abcABC):=T 1.889726e+02=T 90.00000=T Traj:=T positionsangstrom=T Step:=T 0=T Bead:=T pbc="F F F"
C      -48.80540000     -34.38150000     -72.17080000
C      -48.24860000     -33.26350000     -72.87990000
C      -47.26620000     -33.47510000     -73.80770000
C      -46.60890000     -34.72250000     -73.95550000
C      -47.10860000     -35.86850000     -73.19590000
C      -48.26450000     -35.68460000     -72.40570000
H      -49.71330000     -34.27450000     -71.62860000
H      -46.85810000     -32.66310000     -74.40010000
H      -46.62410000     -36.80070000     -73.32930000
H      -48.74390000     -36.56780000     -71.91210000
C      -45.60690000     -34.88110000     -75.03360000
H      -45.91740000     -34.47070000     -76.00250000
H      -45.49850000     -35.90190000     -75.22360000
C      -48.93940000     -31.92510000     -72.79630000
H      -49.35130000     -31.61930000     -73.80840000
H      -49.86580000     -31.98140000     -72.24730000
S      -43.94220000     -34.19390000     -74.86330000
S      -47.74870000     -30.68210000     -72.06590000
C      -43.50290000     -34.69600000     -73.14090000
H      -43.78890000     -35.73080000     -72.88570000
H      -42.39370000     -34.69500000     -73.10440000
C      -46.90050000     -31.63390000     -70.71500000
H      -46.70360000     -32.61650000     -71.02370000
H      -47.52760000     -31.61220000     -69.76670000
C      -45.51590000     -30.94540000     -70.31870000
H      -44.98760000     -30.67050000     -71.18360000
H      -45.76030000     -30.01140000     -69.81780000
C      -44.13280000     -33.75970000     -72.07790000
H      -45.19210000     -33.84140000     -72.14410000
H      -43.95120000     -32.70400000     -72.37250000
C      -43.68880000     -33.94990000     -70.68920000
C      -43.01020000     -35.06830000     -70.34010000
C      -43.91920000     -33.01000000     -69.63500000
H      -42.78930000     -35.93150000     -71.05600000
C      -43.26260000     -33.48910000     -68.45080000
C      -44.71500000     -31.78750000     -69.30020000
C      -44.46630000     -31.37490000     -68.00680000
S      -42.54720000     -35.04860000     -68.62530000
S      -43.35930000     -32.40640000     -67.06440000
H      -44.88410000     -30.50890000     -67.45720000
