40
Properties=species:S:1:pos:R:3 #=T CELL(abcABC):=T 1.889726e+02=T 90.00000=T Traj:=T positionsangstrom=T Step:=T 0=T Bead:=T pbc="F F F"
C      -48.25250000     -34.49550000     -72.03660000
C      -48.06400000     -33.44930000     -72.97500000
C      -47.20200000     -33.69270000     -74.07500000
C      -46.56580000     -34.96340000     -74.24450000
C      -46.81560000     -36.00640000     -73.32260000
C      -47.58790000     -35.72690000     -72.21610000
H      -48.82400000     -34.20410000     -71.13850000
H      -46.92550000     -32.88400000     -74.76180000
H      -46.34840000     -36.98810000     -73.48910000
H      -47.89580000     -36.51870000     -71.50160000
C      -45.48020000     -35.09930000     -75.35730000
H      -45.83940000     -34.65850000     -76.28570000
H      -45.20150000     -36.15410000     -75.61680000
C      -48.65380000     -32.08340000     -72.82980000
H      -49.00000000     -31.65020000     -73.78240000
H      -49.49300000     -31.96870000     -72.18590000
S      -43.96220000     -34.02700000     -74.82000000
S      -47.41740000     -30.82630000     -72.34200000
C      -43.74350000     -34.65490000     -73.12420000
H      -44.10480000     -35.67620000     -73.00750000
H      -42.63630000     -34.63530000     -72.95910000
C      -46.62720000     -31.39190000     -70.74200000
H      -46.66730000     -32.43400000     -70.78920000
H      -47.34470000     -30.94890000     -69.95550000
C      -45.25990000     -30.73900000     -70.48550000
H      -44.66440000     -30.92520000     -71.33780000
H      -45.28870000     -29.61520000     -70.32680000
C      -44.35540000     -33.72350000     -72.02140000
H      -45.44560000     -33.83300000     -72.03740000
H      -44.19520000     -32.69080000     -72.34120000
C      -43.85620000     -33.96640000     -70.59580000
C      -43.37060000     -35.16110000     -70.04540000
C      -44.10500000     -32.90510000     -69.56410000
H      -43.15070000     -36.01950000     -70.72820000
C      -43.60710000     -33.40990000     -68.34710000
C      -44.54200000     -31.50310000     -69.32960000
C      -44.46090000     -31.11710000     -68.03830000
S      -43.04600000     -35.09250000     -68.30020000
S      -43.79260000     -32.34130000     -66.98190000
H      -44.61680000     -30.14210000     -67.55420000
