40
Properties=species:S:1:pos:R:3 #=T CELL(abcABC):=T 1.889726e+02=T 90.00000=T Traj:=T positionsangstrom=T Step:=T 0=T Bead:=T pbc="F F F"
C      -45.47020000     -33.16400000     -74.95620000
C      -45.64670000     -32.77010000     -73.60130000
C      -44.54260000     -32.85300000     -72.70220000
C      -43.32340000     -33.25030000     -73.18190000
C      -43.08770000     -33.51000000     -74.51140000
C      -44.17200000     -33.39820000     -75.43140000
H      -46.26430000     -33.14200000     -75.69990000
H      -44.63920000     -32.47290000     -71.71140000
H      -42.06390000     -33.72910000     -75.02140000
H      -44.03960000     -33.39030000     -76.51410000
C      -42.22120000     -33.46100000     -72.21810000
H      -42.38110000     -32.80460000     -71.32530000
H      -41.14060000     -33.36660000     -72.54390000
C      -46.91790000     -32.21320000     -73.08540000
H      -46.65070000     -31.81960000     -72.07930000
H      -47.23190000     -31.40490000     -73.79300000
S      -42.09590000     -35.18630000     -71.56740000
S      -48.31150000     -33.48060000     -73.15370000
C      -43.90940000     -35.82360000     -71.42410000
H      -44.35570000     -35.32220000     -72.20520000
H      -43.84830000     -36.91270000     -71.66280000
C      -47.59280000     -34.79180000     -72.07120000
H      -46.52950000     -34.87520000     -72.32800000
H      -48.08310000     -35.74460000     -72.42260000
C      -47.96370000     -34.66160000     -70.61490000
H      -48.97560000     -34.62220000     -70.56870000
H      -47.55800000     -35.52660000     -70.06790000
C      -44.75750000     -35.62410000     -70.20380000
H      -44.36690000     -36.26320000     -69.42280000
H      -45.71710000     -35.88100000     -70.53130000
C      -44.82150000     -34.27640000     -69.59950000
C      -43.73800000     -33.71740000     -68.95900000
C      -45.91600000     -33.27480000     -69.64650000
H      -42.77510000     -34.13780000     -68.75450000
C      -45.61690000     -32.09120000     -69.01390000
C      -47.33680000     -33.37820000     -69.96410000
C      -47.96800000     -32.21520000     -69.65660000
S      -44.02370000     -32.12560000     -68.31630000
S      -46.99180000     -30.98590000     -68.95240000
H      -49.00490000     -32.12460000     -69.83060000
