40
Properties=species:S:1:pos:R:3 #=T CELL(abcABC):=T 1.889726e+02=T 90.00000=T Traj:=T positionsangstrom=T Step:=T 0=T Bead:=T pbc="F F F"
C      -47.40830000     -31.08430000     -69.04450000
C      -47.70040000     -30.94820000     -70.44390000
C      -46.67660000     -30.54290000     -71.28110000
C      -45.41120000     -30.14040000     -70.74860000
C      -45.15040000     -30.32530000     -69.36010000
C      -46.16030000     -30.82350000     -68.52730000
H      -48.22350000     -31.45460000     -68.31640000
H      -46.92760000     -30.28700000     -72.32600000
H      -44.11940000     -30.08590000     -68.95570000
H      -45.80890000     -31.01190000     -67.46160000
C      -44.38790000     -29.54990000     -71.69130000
H      -44.28070000     -28.47010000     -71.37380000
H      -44.89110000     -29.61180000     -72.63980000
C      -49.02110000     -31.32410000     -71.04620000
H      -49.71050000     -31.59830000     -70.25890000
H      -49.45190000     -30.38270000     -71.58040000
S      -42.69630000     -30.26760000     -71.75320000
S      -48.97810000     -32.64160000     -72.29590000
C      -42.91830000     -31.95310000     -71.17910000
H      -41.86670000     -32.32800000     -70.97220000
H      -43.26510000     -31.81480000     -70.15730000
C      -47.84330000     -33.89460000     -71.55830000
H      -48.41870000     -34.82580000     -71.44930000
H      -47.27290000     -33.74450000     -70.63640000
C      -46.81880000     -34.39210000     -72.68880000
H      -47.33910000     -34.81510000     -73.54620000
H      -46.18120000     -33.61990000     -72.95870000
C      -43.75000000     -32.90830000     -71.99510000
H      -43.71760000     -32.68220000     -73.02490000
H      -44.84150000     -32.67580000     -71.67010000
C      -43.55010000     -34.39440000     -71.66450000
C      -42.42400000     -34.92150000     -71.05270000
C      -44.48210000     -35.47450000     -71.85800000
H      -41.51080000     -34.35440000     -70.81450000
C      -44.02310000     -36.74970000     -71.51090000
C      -45.91400000     -35.52390000     -72.23570000
C      -46.38650000     -36.78200000     -72.14570000
S      -42.33040000     -36.67590000     -70.97280000
S      -45.23210000     -37.99450000     -71.52150000
H      -47.47610000     -37.05200000     -72.28430000
