40
Properties=species:S:1:pos:R:3 #=T CELL(abcABC):=T 1.889726e+02=T 90.00000=T Traj:=T positionsangstrom=T Step:=T 0=T Bead:=T pbc="F F F"
C      -45.43170000     -33.14880000     -74.94080000
C      -45.69710000     -32.57370000     -73.67250000
C      -44.63100000     -32.66130000     -72.66230000
C      -43.41800000     -33.15780000     -73.09050000
C      -43.08560000     -33.53440000     -74.41240000
C      -44.14110000     -33.63840000     -75.31120000
H      -46.21470000     -33.28660000     -75.66330000
H      -44.85410000     -32.38800000     -71.66550000
H      -42.14040000     -34.06170000     -74.59830000
H      -44.00180000     -34.00620000     -76.35030000
C      -42.27600000     -33.35480000     -72.02480000
H      -42.40630000     -32.69980000     -71.20620000
H      -41.30260000     -33.15920000     -72.45600000
C      -47.06980000     -32.08590000     -73.28090000
H      -46.97630000     -31.69610000     -72.24670000
H      -47.37930000     -31.33170000     -73.95380000
S      -42.24970000     -35.21790000     -71.63640000
S      -48.49020000     -33.36470000     -73.00910000
C      -43.94140000     -35.71830000     -71.49900000
H      -44.50030000     -35.04240000     -72.19370000
H      -44.10410000     -36.73500000     -71.90960000
C      -47.67810000     -34.80330000     -72.04010000
H      -46.60720000     -34.74430000     -72.19930000
H      -48.07290000     -35.75950000     -72.44200000
C      -48.05380000     -34.68110000     -70.55170000
H      -49.17930000     -34.52800000     -70.39760000
H      -47.91150000     -35.71040000     -70.07820000
C      -44.60340000     -35.71100000     -70.14780000
H      -44.05560000     -36.36280000     -69.42410000
H      -45.68910000     -36.07360000     -70.25380000
C      -44.65420000     -34.30900000     -69.55390000
C      -43.59920000     -33.70390000     -68.93320000
C      -45.81840000     -33.46940000     -69.53570000
H      -42.55920000     -34.02140000     -68.94680000
C      -45.56280000     -32.23400000     -68.99490000
C      -47.18830000     -33.51320000     -69.96510000
C      -47.88530000     -32.35090000     -69.74100000
S      -43.90590000     -32.00270000     -68.48590000
S      -46.83640000     -31.11740000     -69.05540000
H      -48.96530000     -32.25510000     -69.99710000
