40
Properties=species:S:1:pos:R:3 #=T CELL(abcABC):=T 1.889726e+02=T 90.00000=T Traj:=T positionsangstrom=T Step:=T 0=T Bead:=T pbc="F F F"
C      -46.64490000     -33.45550000     -68.60700000
C      -45.86150000     -32.29130000     -68.54810000
C      -44.45010000     -32.38870000     -68.71100000
C      -43.86940000     -33.56790000     -69.11980000
C      -44.69840000     -34.69810000     -69.24770000
C      -46.05620000     -34.66340000     -69.08010000
H      -47.70880000     -33.48900000     -68.31690000
H      -43.84010000     -31.45390000     -68.58780000
H      -44.21620000     -35.65180000     -69.55000000
H      -46.58740000     -35.60990000     -69.23410000
C      -42.41120000     -33.79310000     -69.22250000
H      -42.08150000     -34.38240000     -68.32060000
H      -41.89160000     -32.89860000     -69.33060000
C      -46.47970000     -31.00290000     -68.25680000
H      -47.57120000     -31.19490000     -68.03110000
H      -45.83130000     -30.48400000     -67.52880000
S      -41.78110000     -34.82910000     -70.61830000
S      -46.23400000     -29.95320000     -69.81740000
C      -41.98090000     -33.53310000     -71.95660000
H      -41.21220000     -32.77380000     -71.76660000
H      -41.74110000     -34.08620000     -72.79970000
C      -46.96500000     -31.01130000     -71.11730000
H      -48.02060000     -30.74310000     -71.17290000
H      -46.81950000     -32.07710000     -70.77670000
C      -46.27620000     -31.08530000     -72.48480000
H      -46.50210000     -30.23960000     -73.10920000
H      -45.22770000     -31.01180000     -72.40440000
C      -43.39380000     -32.92360000     -72.08460000
H      -43.32870000     -32.04090000     -72.71010000
H      -43.63130000     -32.40670000     -71.15780000
C      -44.50850000     -33.95010000     -72.56990000
C      -44.22610000     -35.24650000     -72.81140000
C      -45.81290000     -33.58810000     -73.02850000
H      -43.26090000     -35.60880000     -72.61190000
C      -46.46890000     -34.70820000     -73.50280000
C      -46.72880000     -32.42390000     -73.05520000
C      -47.97830000     -32.74540000     -73.62200000
S      -45.56150000     -36.15750000     -73.55250000
S      -48.14670000     -34.40260000     -73.97980000
H      -48.87350000     -32.15900000     -73.51420000
