40
Properties=species:S:1:pos:R:3 #=T CELL(abcABC):=T 1.889726e+02=T 90.00000=T Traj:=T positionsangstrom=T Step:=T 0=T Bead:=T pbc="F F F"
C      -45.35360000     -32.83500000     -75.22130000
C      -45.56710000     -32.62090000     -73.85530000
C      -44.56300000     -32.97650000     -72.95890000
C      -43.26680000     -33.40260000     -73.38890000
C      -43.05510000     -33.62600000     -74.80610000
C      -44.11800000     -33.39110000     -75.64310000
H      -46.07560000     -32.66030000     -75.98340000
H      -44.76150000     -32.84250000     -71.88830000
H      -42.17900000     -34.02840000     -75.27270000
H      -44.10420000     -33.49380000     -76.71360000
C      -42.17660000     -33.62340000     -72.47030000
H      -42.04190000     -32.73900000     -71.79400000
H      -41.22630000     -33.76110000     -73.02340000
C      -46.86920000     -32.11450000     -73.36940000
H      -46.80800000     -31.96540000     -72.27060000
H      -47.29730000     -31.31590000     -73.95150000
S      -42.27510000     -35.08300000     -71.24740000
S      -48.10780000     -33.47640000     -73.34570000
C      -43.96910000     -35.78390000     -71.26560000
H      -44.51300000     -35.24440000     -72.11790000
H      -43.90600000     -36.79350000     -71.54140000
C      -47.33070000     -34.73660000     -72.20730000
H      -46.24920000     -34.50510000     -72.30890000
H      -47.51440000     -35.74560000     -72.63900000
C      -47.84460000     -34.68400000     -70.75090000
H      -48.95090000     -34.59240000     -70.77370000
H      -47.74720000     -35.60370000     -70.28630000
C      -44.57540000     -35.68020000     -69.78830000
H      -43.96520000     -36.25510000     -69.07440000
H      -45.56330000     -36.27160000     -69.86810000
C      -44.77420000     -34.26430000     -69.28760000
C      -43.72230000     -33.53810000     -68.71020000
C      -45.97410000     -33.50340000     -69.34060000
H      -42.68040000     -33.86070000     -68.65990000
C      -45.76740000     -32.17690000     -68.85510000
C      -47.30790000     -33.60140000     -69.86380000
C      -48.02150000     -32.45420000     -69.63630000
S      -44.12980000     -31.84790000     -68.35390000
S      -47.22270000     -31.15730000     -68.77010000
H      -48.98190000     -32.24150000     -70.11390000
