40
Properties=species:S:1:pos:R:3 #=T CELL(abcABC):=T 1.889726e+02=T 90.00000=T Traj:=T positionsangstrom=T Step:=T 0=T Bead:=T pbc="F F F"
C      -46.68530000     -31.81100000     -68.15760000
C      -47.54930000     -31.86200000     -69.23360000
C      -47.24900000     -31.12260000     -70.38100000
C      -46.24920000     -30.14950000     -70.40480000
C      -45.36440000     -30.05170000     -69.26810000
C      -45.55270000     -30.96040000     -68.20790000
H      -46.69320000     -32.52640000     -67.31400000
H      -47.88340000     -30.99610000     -71.25310000
H      -44.64900000     -29.31500000     -69.15300000
H      -44.88130000     -30.89660000     -67.36770000
C      -46.04690000     -29.18570000     -71.52320000
H      -45.30640000     -28.40780000     -71.06050000
H      -46.95100000     -28.58230000     -71.73310000
C      -48.69210000     -32.82420000     -69.09010000
H      -48.79200000     -33.21520000     -68.03830000
H      -49.59700000     -32.17700000     -69.31640000
S      -45.54560000     -29.89260000     -73.17850000
S      -48.77020000     -33.99920000     -70.43820000
C      -44.16120000     -31.21130000     -73.07890000
H      -43.65470000     -31.24430000     -74.06420000
H      -43.51620000     -30.83950000     -72.37950000
C      -47.04130000     -34.67500000     -70.43880000
H      -46.97650000     -35.46380000     -69.66620000
H      -46.32080000     -33.89980000     -70.08780000
C      -46.69210000     -35.29450000     -71.78580000
H      -47.33870000     -36.11250000     -71.99340000
H      -46.75900000     -34.47160000     -72.49450000
C      -44.69310000     -32.56490000     -72.65010000
H      -45.44360000     -32.84900000     -73.35380000
H      -45.20150000     -32.50230000     -71.62910000
C      -43.68260000     -33.77210000     -72.49620000
C      -42.34150000     -33.62910000     -72.48440000
C      -44.08320000     -35.13480000     -72.16630000
H      -41.66910000     -32.82360000     -72.78770000
C      -43.04630000     -36.03960000     -72.16860000
C      -45.30510000     -35.87380000     -71.81140000
C      -45.18560000     -37.19000000     -71.63020000
S      -41.50880000     -35.23570000     -72.41680000
S      -43.48940000     -37.73830000     -71.82000000
H      -46.04480000     -37.90230000     -71.45790000
