40
Properties=species:S:1:pos:R:3 #=T CELL(abcABC):=T 1.889726e+02=T 90.00000=T Traj:=T positionsangstrom=T Step:=T 0=T Bead:=T pbc="F F F"
C      -46.64570000     -31.58560000     -68.11980000
C      -47.49520000     -31.65270000     -69.21210000
C      -47.29290000     -30.88540000     -70.33580000
C      -46.12850000     -30.11500000     -70.48010000
C      -45.17870000     -30.18880000     -69.43960000
C      -45.41740000     -30.89890000     -68.23460000
H      -46.87020000     -32.02680000     -67.16110000
H      -47.90780000     -31.01320000     -71.29230000
H      -44.26600000     -29.70700000     -69.58440000
H      -44.77490000     -30.72230000     -67.37550000
C      -45.79480000     -29.21760000     -71.68310000
H      -44.93810000     -28.55970000     -71.42950000
H      -46.56880000     -28.62950000     -72.00290000
C      -48.73370000     -32.54000000     -69.15330000
H      -48.82620000     -33.09140000     -68.22510000
H      -49.61570000     -31.93320000     -69.20810000
S      -45.35220000     -30.19570000     -73.28960000
S      -48.73580000     -33.85780000     -70.50830000
C      -44.10860000     -31.31680000     -72.60200000
H      -43.32810000     -31.48190000     -73.45730000
H      -43.56280000     -30.81550000     -71.77160000
C      -47.08720000     -34.66480000     -70.53110000
H      -47.12830000     -35.46110000     -69.79090000
H      -46.33350000     -33.89140000     -70.28820000
C      -46.80370000     -35.24350000     -71.97340000
H      -47.63650000     -35.83030000     -72.34190000
H      -46.82960000     -34.41940000     -72.74600000
C      -44.76440000     -32.66270000     -72.26000000
H      -45.67340000     -32.74190000     -72.85150000
H      -45.26030000     -32.72840000     -71.23310000
C      -43.77810000     -33.82430000     -72.41220000
C      -42.39920000     -33.68620000     -72.39710000
C      -44.24950000     -35.17680000     -72.14350000
H      -41.74360000     -32.80920000     -72.65680000
C      -43.13630000     -36.05060000     -72.09150000
C      -45.47610000     -35.94950000     -71.97340000
C      -45.25490000     -37.26470000     -71.91360000
S      -41.62600000     -35.26040000     -72.23720000
S      -43.56540000     -37.72270000     -71.82200000
H      -46.03460000     -38.03120000     -71.87090000
