40
Properties=species:S:1:pos:R:3 #=T CELL(abcABC):=T 1.889726e+02=T 90.00000=T Traj:=T positionsangstrom=T Step:=T 0=T Bead:=T pbc="F F F"
C      -43.86440000     -32.85120000     -74.96510000
C      -44.62240000     -32.56450000     -73.89350000
C      -44.07110000     -32.38320000     -72.59780000
C      -42.76290000     -32.71690000     -72.33990000
C      -41.95170000     -33.04070000     -73.44140000
C      -42.50150000     -33.10760000     -74.76170000
H      -44.28640000     -33.01010000     -75.97250000
H      -44.75900000     -32.07670000     -71.83980000
H      -40.86730000     -33.20410000     -73.25980000
H      -41.86110000     -33.25760000     -75.56430000
C      -42.30020000     -32.87400000     -70.95460000
H      -42.94180000     -32.30760000     -70.26970000
H      -41.32140000     -32.40860000     -70.89640000
C      -46.07210000     -32.23080000     -74.08080000
H      -46.39810000     -31.64960000     -73.22030000
H      -46.20150000     -31.61530000     -74.96900000
S      -42.21520000     -34.69660000     -70.52620000
S      -47.24920000     -33.69700000     -74.38840000
C      -43.92520000     -35.27250000     -71.22460000
H      -44.23900000     -34.30550000     -71.66730000
H      -43.68860000     -36.02240000     -71.92900000
C      -46.87820000     -34.97770000     -73.06660000
H      -45.78480000     -34.86680000     -72.67840000
H      -47.05960000     -36.00730000     -73.59340000
C      -47.69320000     -34.85260000     -71.69130000
H      -48.75040000     -34.68630000     -71.98730000
H      -47.55750000     -35.65630000     -71.01080000
C      -44.85440000     -35.67420000     -70.07780000
H      -44.25050000     -36.32040000     -69.46090000
H      -45.62810000     -36.37410000     -70.49440000
C      -45.37960000     -34.48900000     -69.28020000
C      -44.79660000     -33.93810000     -68.15590000
C      -46.54520000     -33.60230000     -69.63790000
H      -43.85520000     -34.25110000     -67.72040000
C      -46.83600000     -32.50600000     -68.88320000
C      -47.45370000     -33.62830000     -70.79200000
C      -48.32770000     -32.55040000     -70.90050000
S      -45.63600000     -32.44270000     -67.57050000
S      -48.11200000     -31.49420000     -69.48240000
H      -48.88890000     -32.42230000     -71.80870000
