40
Properties=species:S:1:pos:R:3 #=T CELL(abcABC):=T 1.889726e+02=T 90.00000=T Traj:=T positionsangstrom=T Step:=T 0=T Bead:=T pbc="F F F"
C      -48.55590000     -34.27190000     -70.67070000
C      -48.34210000     -32.87960000     -70.81970000
C      -48.07460000     -32.50360000     -72.14830000
C      -48.14070000     -33.36280000     -73.26800000
C      -48.54750000     -34.65480000     -73.10120000
C      -48.63530000     -35.09410000     -71.78550000
H      -48.65820000     -34.61480000     -69.58590000
H      -47.96730000     -31.51570000     -72.49680000
H      -48.60070000     -35.27660000     -73.97860000
H      -48.95880000     -36.15010000     -71.64410000
C      -47.70840000     -32.75280000     -74.61160000
H      -48.22000000     -31.84850000     -74.95770000
H      -47.75740000     -33.49470000     -75.49790000
C      -48.52240000     -31.90180000     -69.73250000
H      -49.47230000     -31.36490000     -69.76770000
H      -48.57970000     -32.47440000     -68.82140000
S      -45.92870000     -32.11770000     -74.46690000
S      -47.31210000     -30.52730000     -69.50400000
C      -45.03450000     -33.39880000     -73.51660000
H      -45.41220000     -33.58030000     -72.53560000
H      -45.07860000     -34.33130000     -74.06030000
C      -45.76340000     -31.48120000     -69.14340000
H      -46.13440000     -32.07000000     -68.39590000
H      -45.05410000     -30.79410000     -68.71860000
C      -45.25390000     -32.40680000     -70.30220000
H      -46.13520000     -32.96590000     -70.55580000
H      -45.06930000     -31.76090000     -71.20190000
C      -43.57080000     -32.94800000     -73.30660000
H      -43.60700000     -31.90770000     -72.84750000
H      -43.01970000     -32.79960000     -74.17980000
C      -42.84600000     -33.82720000     -72.29480000
C      -41.76350000     -34.60690000     -72.56140000
C      -43.25260000     -33.99590000     -70.91460000
H      -41.25620000     -34.80070000     -73.50240000
C      -42.47720000     -34.90590000     -70.20830000
C      -44.13990000     -33.33050000     -69.95320000
C      -43.97520000     -33.72020000     -68.68220000
S      -41.21550000     -35.57000000     -71.15050000
S      -42.80410000     -35.04590000     -68.48550000
H      -44.64640000     -33.60360000     -67.82220000
