40
Properties=species:S:1:pos:R:3 #=T CELL(abcABC):=T 1.889726e+02=T 90.00000=T Traj:=T positionsangstrom=T Step:=T 0=T Bead:=T pbc="F F F"
C      -46.79400000     -32.18180000     -68.15810000
C      -47.69530000     -32.12160000     -69.26460000
C      -47.48080000     -31.23040000     -70.33500000
C      -46.44910000     -30.28210000     -70.25410000
C      -45.64430000     -30.24720000     -69.06830000
C      -45.77350000     -31.22940000     -68.09460000
H      -46.99620000     -32.94540000     -67.40320000
H      -48.14880000     -31.31890000     -71.18630000
H      -44.81550000     -29.57630000     -68.96040000
H      -45.22540000     -31.21600000     -67.10100000
C      -46.28770000     -29.24470000     -71.33700000
H      -45.49610000     -28.53040000     -71.15440000
H      -47.22140000     -28.67860000     -71.34850000
C      -48.87400000     -33.04990000     -69.30050000
H      -49.06580000     -33.59340000     -68.35450000
H      -49.81780000     -32.46270000     -69.48100000
S      -46.09490000     -30.07020000     -73.04380000
S      -48.64710000     -34.20040000     -70.71860000
C      -44.67300000     -31.26970000     -73.05640000
H      -44.33080000     -31.33570000     -74.18550000
H      -43.74700000     -30.82170000     -72.64930000
C      -46.90040000     -34.77340000     -70.47650000
H      -46.72050000     -35.47810000     -69.62610000
H      -46.30680000     -33.90660000     -70.26120000
C      -46.43440000     -35.56030000     -71.68820000
H      -46.97020000     -36.47590000     -71.64010000
H      -46.62800000     -34.99500000     -72.63710000
C      -44.93670000     -32.60850000     -72.38970000
H      -45.82900000     -33.04660000     -72.84180000
H      -45.07830000     -32.27510000     -71.41000000
C      -43.79290000     -33.59510000     -72.51380000
C      -42.48160000     -33.23870000     -72.81190000
C      -43.88440000     -35.05520000     -72.17890000
H      -42.13100000     -32.18280000     -72.92470000
C      -42.68400000     -35.77530000     -72.24650000
C      -44.95920000     -35.85470000     -71.66120000
C      -44.58020000     -37.15510000     -71.41100000
S      -41.38120000     -34.67020000     -72.62460000
S      -42.86360000     -37.42110000     -71.76630000
H      -45.16240000     -38.06340000     -71.15560000
