40
Properties=species:S:1:pos:R:3 #=T CELL(abcABC):=T 1.889726e+02=T 90.00000=T Traj:=T positionsangstrom=T Step:=T 0=T Bead:=T pbc="F F F"
C      -46.86080000     -32.38910000     -68.24280000
C      -47.79080000     -32.39940000     -69.32960000
C      -47.72540000     -31.41350000     -70.33330000
C      -46.64620000     -30.48890000     -70.27130000
C      -45.73500000     -30.52370000     -69.22070000
C      -45.84400000     -31.39900000     -68.17520000
H      -46.92720000     -33.17180000     -67.52240000
H      -48.52990000     -31.32820000     -71.11080000
H      -44.81790000     -29.89620000     -69.28530000
H      -45.26770000     -31.20550000     -67.31910000
C      -46.33370000     -29.52360000     -71.43820000
H      -45.31600000     -29.00780000     -71.30180000
H      -47.07830000     -28.68020000     -71.41600000
C      -48.91110000     -33.37000000     -69.31490000
H      -48.92420000     -33.83640000     -68.29280000
H      -49.91570000     -32.86320000     -69.51040000
S      -46.50160000     -30.28040000     -73.12860000
S      -48.68630000     -34.53370000     -70.75210000
C      -45.03800000     -31.35000000     -73.33410000
H      -45.00970000     -31.61420000     -74.42830000
H      -44.13490000     -30.73110000     -73.25370000
C      -46.90680000     -34.98770000     -70.48650000
H      -46.86040000     -35.57140000     -69.53820000
H      -46.24650000     -34.14070000     -70.39840000
C      -46.30230000     -35.83870000     -71.68210000
H      -46.66980000     -36.86920000     -71.70900000
H      -46.59920000     -35.27920000     -72.59750000
C      -45.16330000     -32.64230000     -72.44940000
H      -45.88420000     -33.24980000     -72.80030000
H      -45.35880000     -32.24140000     -71.44830000
C      -43.83910000     -33.42340000     -72.30720000
C      -42.56620000     -32.81480000     -72.29270000
C      -43.80750000     -34.81570000     -72.00940000
H      -42.28800000     -31.79880000     -72.38610000
C      -42.45480000     -35.28330000     -72.10620000
C      -44.77780000     -35.89950000     -71.67350000
C      -44.08310000     -37.07120000     -71.60970000
S      -41.25960000     -34.02370000     -72.35480000
S      -42.34270000     -37.00900000     -71.85990000
H      -44.63060000     -37.96840000     -71.47880000
