40
Properties=species:S:1:pos:R:3 #=T CELL(abcABC):=T 1.889726e+02=T 90.00000=T Traj:=T positionsangstrom=T Step:=T 0=T Bead:=T pbc="F F F"
C      -46.93470000     -32.25460000     -68.19620000
C      -47.76080000     -32.10660000     -69.30190000
C      -47.63270000     -31.02010000     -70.18190000
C      -46.50570000     -30.16750000     -70.14050000
C      -45.71010000     -30.23630000     -68.99480000
C      -45.88460000     -31.30690000     -68.08280000
H      -47.08400000     -32.98630000     -67.39340000
H      -48.33900000     -30.93290000     -71.00680000
H      -44.82410000     -29.59320000     -68.95730000
H      -45.16810000     -31.49250000     -67.22620000
C      -46.19530000     -29.32280000     -71.37130000
H      -45.18550000     -28.93650000     -71.26600000
H      -46.81820000     -28.34800000     -71.52220000
C      -48.88770000     -33.15900000     -69.41440000
H      -49.07580000     -33.79790000     -68.51560000
H      -49.86260000     -32.70410000     -69.63460000
S      -46.25380000     -30.10060000     -73.04530000
S      -48.65660000     -34.37160000     -70.78950000
C      -44.87280000     -31.28490000     -73.13070000
H      -44.90970000     -31.41170000     -74.18470000
H      -43.95040000     -30.85380000     -72.80770000
C      -46.83890000     -34.86390000     -70.55620000
H      -46.77370000     -35.35110000     -69.57330000
H      -46.25190000     -33.97440000     -70.44660000
C      -46.36390000     -35.73970000     -71.70960000
H      -46.84910000     -36.73920000     -71.74530000
H      -46.64550000     -35.24690000     -72.65330000
C      -45.01550000     -32.63150000     -72.43770000
H      -45.91140000     -33.32920000     -72.79490000
H      -45.23050000     -32.52070000     -71.38060000
C      -43.79220000     -33.53310000     -72.39690000
C      -42.47530000     -33.20150000     -72.70250000
C      -43.85320000     -34.96890000     -71.97520000
H      -42.18840000     -32.31230000     -73.21160000
C      -42.64080000     -35.58690000     -72.06110000
C      -44.87940000     -35.98460000     -71.71250000
C      -44.33050000     -37.24460000     -71.65220000
S      -41.35570000     -34.49430000     -72.58430000
S      -42.61830000     -37.28560000     -71.77050000
H      -44.91590000     -38.18940000     -71.55360000
