40
Properties=species:S:1:pos:R:3 #=T CELL(abcABC):=T 1.889726e+02=T 90.00000=T Traj:=T positionsangstrom=T Step:=T 0=T Bead:=T pbc="F F F"
C      -47.53270000     -32.47150000     -68.00780000
C      -47.94200000     -33.12330000     -69.15810000
C      -48.01680000     -32.38960000     -70.33950000
C      -47.68050000     -31.02550000     -70.37700000
C      -47.24750000     -30.38870000     -69.17810000
C      -47.23750000     -31.10620000     -67.99040000
H      -47.50190000     -33.01210000     -67.07260000
H      -48.41960000     -32.86220000     -71.19250000
H      -47.02740000     -29.32650000     -69.09060000
H      -46.98230000     -30.58250000     -67.04080000
C      -47.65210000     -30.21690000     -71.65800000
H      -46.93520000     -29.39790000     -71.45580000
H      -48.61020000     -29.75910000     -71.87470000
C      -48.42150000     -34.57190000     -69.09730000
H      -48.23260000     -35.05290000     -68.09540000
H      -49.51260000     -34.59660000     -69.11250000
S      -47.40960000     -31.12980000     -73.17570000
S      -47.91970000     -35.46760000     -70.54400000
C      -45.70090000     -31.69360000     -73.28280000
H      -45.55060000     -32.42800000     -74.05470000
H      -45.03420000     -30.92580000     -73.69430000
C      -46.04050000     -35.32600000     -70.58930000
H      -45.66900000     -35.82110000     -69.70150000
H      -45.90480000     -34.25500000     -70.49440000
C      -45.45760000     -35.87870000     -71.87820000
H      -45.63620000     -36.95100000     -72.14970000
H      -46.08910000     -35.26230000     -72.56970000
C      -45.15980000     -32.25640000     -71.97150000
H      -45.89450000     -32.91220000     -71.57110000
H      -45.09550000     -31.39350000     -71.23210000
C      -43.78630000     -32.90650000     -72.05380000
C      -42.65550000     -32.08880000     -72.32670000
C      -43.38330000     -34.28250000     -72.07800000
H      -42.70870000     -31.06250000     -72.43640000
C      -42.00440000     -34.37000000     -72.05450000
C      -43.96960000     -35.57150000     -72.07810000
C      -43.02840000     -36.59600000     -72.01710000
S      -41.13820000     -32.90450000     -72.41920000
S      -41.41160000     -35.98940000     -72.03980000
H      -43.24770000     -37.65690000     -71.98730000
