40
Properties=species:S:1:pos:R:3 #=T CELL(abcABC):=T 1.889726e+02=T 90.00000=T Traj:=T positionsangstrom=T Step:=T 0=T Bead:=T pbc="F F F"
C      -47.55410000     -32.34190000     -67.94690000
C      -48.03500000     -32.98840000     -69.09120000
C      -48.01920000     -32.26770000     -70.29490000
C      -47.63910000     -30.91970000     -70.32960000
C      -47.17360000     -30.31710000     -69.14210000
C      -47.15250000     -31.01220000     -67.92020000
H      -47.43730000     -32.93330000     -67.04020000
H      -48.28550000     -32.79980000     -71.29720000
H      -46.85690000     -29.28880000     -69.25280000
H      -46.68790000     -30.65630000     -66.97480000
C      -47.59770000     -30.14630000     -71.64340000
H      -46.74540000     -29.49500000     -71.66390000
H      -48.52060000     -29.54980000     -71.80820000
C      -48.52360000     -34.48420000     -69.10810000
H      -48.39990000     -35.11660000     -68.26300000
H      -49.62900000     -34.52890000     -69.21140000
S      -47.38310000     -31.16120000     -73.15370000
S      -48.05570000     -35.40830000     -70.64120000
C      -45.56780000     -31.32390000     -73.29640000
H      -45.34110000     -31.74160000     -74.27630000
H      -45.11180000     -30.35030000     -73.29630000
C      -46.20910000     -35.60510000     -70.45160000
H      -45.95890000     -36.38180000     -69.77330000
H      -45.83120000     -34.66000000     -70.12260000
C      -45.60490000     -35.83830000     -71.82110000
H      -45.69680000     -36.90210000     -72.01170000
H      -46.12320000     -35.38990000     -72.65940000
C      -45.08170000     -32.24890000     -72.18830000
H      -45.71290000     -33.10770000     -72.26070000
H      -45.28820000     -31.80440000     -71.21140000
C      -43.70300000     -32.84980000     -72.32250000
C      -42.50140000     -32.12000000     -72.53500000
C      -43.33940000     -34.23460000     -72.02840000
H      -42.39420000     -31.06460000     -72.58470000
C      -41.94950000     -34.44220000     -72.05040000
C      -44.07570000     -35.54980000     -72.00450000
C      -43.18290000     -36.62180000     -71.99960000
S      -40.96660000     -33.07170000     -72.41750000
S      -41.49650000     -36.20150000     -71.92780000
H      -43.38820000     -37.64850000     -71.88210000
