40
Properties=species:S:1:pos:R:3 #=T CELL(abcABC):=T 1.889726e+02=T 90.00000=T Traj:=T positionsangstrom=T Step:=T 0=T Bead:=T pbc="F F F"
C      -47.57270000     -32.42000000     -68.11630000
C      -48.09950000     -33.00130000     -69.26700000
C      -48.00350000     -32.27000000     -70.42420000
C      -47.53830000     -30.94010000     -70.45840000
C      -47.08610000     -30.34880000     -69.31940000
C      -47.08550000     -31.12170000     -68.15250000
H      -47.62540000     -32.89530000     -67.13360000
H      -48.43100000     -32.67800000     -71.33690000
H      -46.68570000     -29.36400000     -69.38410000
H      -46.68320000     -30.74540000     -67.19610000
C      -47.62140000     -30.10450000     -71.68340000
H      -47.06290000     -29.13910000     -71.50640000
H      -48.57630000     -29.72860000     -71.93610000
C      -48.54900000     -34.39490000     -69.19270000
H      -48.32430000     -34.69870000     -68.17720000
H      -49.65390000     -34.29450000     -69.22940000
S      -47.15110000     -30.90380000     -73.25890000
S      -47.97340000     -35.51440000     -70.50530000
C      -45.35670000     -31.30200000     -73.06550000
H      -44.85070000     -31.52240000     -74.08100000
H      -44.88050000     -30.40080000     -72.69880000
C      -46.16270000     -35.14730000     -70.54480000
H      -45.57990000     -35.71790000     -69.76400000
H      -46.11740000     -34.04750000     -70.32920000
C      -45.61820000     -35.65960000     -71.88920000
H      -46.02850000     -36.68270000     -72.04360000
H      -46.09400000     -34.94830000     -72.59550000
C      -45.17360000     -32.42080000     -72.03420000
H      -45.92260000     -33.24750000     -72.16310000
H      -45.37750000     -32.10700000     -70.98130000
C      -43.78630000     -33.02050000     -72.10640000
C      -42.69730000     -32.24080000     -72.44210000
C      -43.37050000     -34.39420000     -72.02580000
H      -42.71320000     -31.13820000     -72.59000000
C      -41.99520000     -34.58300000     -72.08390000
C      -44.11290000     -35.63840000     -71.84910000
C      -43.26620000     -36.72750000     -71.74720000
S      -41.15990000     -33.07840000     -72.40780000
S      -41.52540000     -36.26010000     -71.91260000
H      -43.51910000     -37.74800000     -71.50250000
