40
Properties=species:S:1:pos:R:3 #=T CELL(abcABC):=T 1.889726e+02=T 90.00000=T Traj:=T positionsangstrom=T Step:=T 0=T Bead:=T pbc="F F F"
C      -47.77280000     -32.86570000     -68.11730000
C      -47.95710000     -33.68860000     -69.28720000
C      -48.18490000     -33.05140000     -70.52760000
C      -48.09210000     -31.68670000     -70.66440000
C      -47.98110000     -30.88000000     -69.54340000
C      -47.72300000     -31.50060000     -68.32120000
H      -47.58740000     -33.30770000     -67.19790000
H      -48.37880000     -33.72850000     -71.39530000
H      -48.02160000     -29.79900000     -69.58620000
H      -47.52160000     -30.74750000     -67.54850000
C      -48.11060000     -30.99310000     -72.00040000
H      -47.42450000     -30.12930000     -71.96240000
H      -49.08700000     -30.62740000     -72.24910000
C      -48.12520000     -35.16640000     -68.99200000
H      -47.55870000     -35.43700000     -68.13890000
H      -49.18590000     -35.36630000     -68.72630000
S      -47.65400000     -32.05890000     -73.47960000
S      -47.44690000     -36.21930000     -70.38630000
C      -45.77910000     -32.03940000     -73.55750000
H      -45.38800000     -32.96180000     -73.93620000
H      -45.37080000     -31.29570000     -74.19540000
C      -45.65420000     -35.88430000     -70.36040000
H      -45.17700000     -36.87830000     -70.32970000
H      -45.35070000     -35.31700000     -69.44330000
C      -45.34050000     -35.25240000     -71.75930000
H      -45.65440000     -36.01930000     -72.58390000
H      -45.98030000     -34.38810000     -71.90730000
C      -45.17470000     -31.74430000     -72.13060000
H      -45.76680000     -32.18910000     -71.28250000
H      -45.17720000     -30.65600000     -72.04840000
C      -43.70210000     -32.22090000     -71.99930000
C      -42.72010000     -31.24430000     -72.00470000
C      -43.22980000     -33.58220000     -71.90640000
H      -42.84520000     -30.19680000     -72.10810000
C      -41.83170000     -33.56900000     -72.03520000
C      -43.83680000     -34.87960000     -71.84940000
C      -42.82680000     -35.84680000     -71.81120000
S      -41.09490000     -32.00270000     -72.06510000
S      -41.24830000     -35.18950000     -71.92760000
H      -42.99970000     -36.87820000     -71.65330000
