40
Properties=species:S:1:pos:R:3 #=T CELL(abcABC):=T 1.889726e+02=T 90.00000=T Traj:=T positionsangstrom=T Step:=T 0=T Bead:=T pbc="F F F"
C      -47.94010000     -32.82040000     -68.25900000
C      -48.08440000     -33.71070000     -69.36260000
C      -48.13570000     -33.14130000     -70.62400000
C      -48.06220000     -31.74060000     -70.80970000
C      -47.93430000     -30.90780000     -69.68720000
C      -47.92950000     -31.43500000     -68.44730000
H      -47.75050000     -33.23710000     -67.21390000
H      -48.24990000     -33.73670000     -71.47710000
H      -47.83170000     -29.78510000     -69.77210000
H      -47.99320000     -30.76940000     -67.59700000
C      -48.28350000     -31.15090000     -72.21890000
H      -47.83050000     -30.18040000     -72.24870000
H      -49.33920000     -31.12500000     -72.35350000
C      -48.23210000     -35.09790000     -69.02190000
H      -47.93690000     -35.26350000     -67.95840000
H      -49.32200000     -35.45330000     -69.04970000
S      -47.56070000     -32.12990000     -73.64340000
S      -47.52100000     -36.33290000     -70.29040000
C      -45.66530000     -32.31400000     -73.41400000
H      -45.41090000     -33.28230000     -73.46250000
H      -45.25500000     -31.76410000     -74.26700000
C      -45.65210000     -36.10310000     -70.50620000
H      -45.28960000     -37.06390000     -70.79670000
H      -45.16990000     -35.86920000     -69.57790000
C      -45.35390000     -35.09880000     -71.58980000
H      -45.63060000     -35.55470000     -72.58510000
H      -45.83870000     -34.12500000     -71.35700000
C      -45.08330000     -31.65580000     -72.06320000
H      -45.69470000     -31.78360000     -71.13730000
H      -45.08840000     -30.55990000     -72.23640000
C      -43.65480000     -32.13090000     -72.00170000
C      -42.64570000     -31.20970000     -72.06450000
C      -43.15210000     -33.49560000     -71.93780000
H      -42.72030000     -30.14570000     -72.10950000
C      -41.75570000     -33.51950000     -71.98950000
C      -43.81010000     -34.79600000     -71.74800000
C      -42.85290000     -35.76200000     -71.57490000
S      -41.06250000     -31.91570000     -72.11100000
S      -41.20450000     -35.07460000     -71.63330000
H      -42.95440000     -36.83800000     -71.43590000
