40
Properties=species:S:1:pos:R:3 #=T CELL(abcABC):=T 1.889726e+02=T 90.00000=T Traj:=T positionsangstrom=T Step:=T 0=T Bead:=T pbc="F F F"
C      -44.54230000     -30.11000000     -72.76180000
C      -43.48460000     -30.96060000     -72.69760000
C      -42.87770000     -31.32910000     -71.45860000
C      -43.29930000     -30.77480000     -70.28300000
C      -44.40130000     -29.83700000     -70.35400000
C      -45.03600000     -29.52260000     -71.61000000
H      -44.93340000     -29.87350000     -73.75760000
H      -42.00030000     -31.91890000     -71.46130000
H      -44.77970000     -29.41220000     -69.44670000
H      -45.85100000     -28.83090000     -71.73280000
C      -42.67900000     -31.17500000     -68.99240000
H      -43.04850000     -30.49890000     -68.22930000
H      -41.61290000     -31.00690000     -69.02660000
C      -42.85790000     -31.57590000     -73.88990000
H      -43.36200000     -31.29430000     -74.85180000
H      -41.84880000     -31.23830000     -74.07400000
S      -43.11760000     -32.85990000     -68.34910000
S      -42.76960000     -33.52320000     -73.76530000
C      -44.95930000     -32.88540000     -68.66110000
H      -45.53250000     -33.62800000     -68.11020000
H      -45.24360000     -31.86260000     -68.43400000
C      -44.55120000     -33.95350000     -73.43850000
H      -44.97410000     -33.96410000     -74.45320000
H      -45.08490000     -33.22830000     -72.84860000
C      -44.61270000     -35.39050000     -72.72970000
H      -44.32680000     -36.11630000     -73.55030000
H      -43.87670000     -35.44310000     -71.87770000
C      -45.25800000     -33.34540000     -70.14110000
H      -44.56770000     -34.06680000     -70.49890000
H      -45.17990000     -32.52300000     -70.83800000
C      -46.69490000     -33.95800000     -70.38220000
C      -47.84300000     -33.41490000     -69.84560000
C      -46.84770000     -34.97370000     -71.38500000
H      -48.00690000     -32.71250000     -69.05860000
C      -48.21800000     -35.31420000     -71.35630000
C      -46.01360000     -35.71970000     -72.33250000
C      -46.66390000     -36.86120000     -72.71010000
S      -49.23630000     -34.43980000     -70.22780000
S      -48.33330000     -36.85770000     -72.16150000
H      -46.28420000     -37.50360000     -73.51520000
