40
Properties=species:S:1:pos:R:3 #=T CELL(abcABC):=T 1.889726e+02=T 90.00000=T Traj:=T positionsangstrom=T Step:=T 0=T Bead:=T pbc="F F F"
C      -48.82730000     -33.17160000     -69.25570000
C      -48.03380000     -32.10610000     -69.77590000
C      -47.93310000     -31.84160000     -71.16480000
C      -48.65920000     -32.75510000     -72.02350000
C      -49.32110000     -33.82820000     -71.54000000
C      -49.45900000     -33.99920000     -70.15500000
H      -48.92360000     -33.22960000     -68.14850000
H      -47.54690000     -30.86660000     -71.51750000
H      -49.69200000     -34.58770000     -72.22240000
H      -50.11820000     -34.86710000     -69.88320000
C      -48.44980000     -32.54970000     -73.54010000
H      -47.95250000     -31.53890000     -73.69500000
H      -49.45310000     -32.45060000     -73.89270000
C      -47.38910000     -31.20550000     -68.79450000
H      -48.09160000     -30.37950000     -68.49510000
H      -47.34820000     -31.66380000     -67.76920000
S      -47.56150000     -33.91490000     -74.51510000
S      -45.88010000     -30.28480000     -69.24030000
C      -46.17440000     -34.47460000     -73.42030000
H      -46.63130000     -34.83870000     -72.48350000
H      -45.67580000     -35.26190000     -73.96000000
C      -44.44670000     -31.43700000     -69.25140000
H      -43.90400000     -31.35240000     -68.30440000
H      -43.73490000     -31.05630000     -70.06650000
C      -44.73420000     -32.91450000     -69.53340000
H      -45.22220000     -33.45370000     -68.62620000
H      -45.55280000     -32.81260000     -70.25530000
C      -45.15720000     -33.37460000     -73.11700000
H      -45.49570000     -32.85940000     -72.26860000
H      -45.13750000     -32.53890000     -73.95510000
C      -43.81360000     -33.94110000     -72.75300000
C      -42.96540000     -34.47630000     -73.66830000
C      -43.20390000     -34.04920000     -71.39390000
H      -43.07850000     -34.42510000     -74.74860000
C      -42.03430000     -34.80870000     -71.41020000
C      -43.55960000     -33.73950000     -69.99350000
C      -42.56970000     -34.12780000     -69.13620000
S      -41.53710000     -35.20820000     -73.03120000
S      -41.40430000     -35.16740000     -69.86130000
H      -42.63160000     -33.98940000     -68.06340000
