40
Properties=species:S:1:pos:R:3 #=T CELL(abcABC):=T 1.889726e+02=T 90.00000=T Traj:=T positionsangstrom=T Step:=T 0=T Bead:=T pbc="F F F"
C      -45.30790000     -32.15690000     -74.01430000
C      -46.47750000     -32.92970000     -73.86230000
C      -46.21290000     -34.34070000     -73.88210000
C      -44.98530000     -34.92110000     -73.77530000
C      -43.85070000     -34.07520000     -73.67160000
C      -43.98380000     -32.74540000     -74.02610000
H      -45.47580000     -31.06750000     -74.02230000
H      -47.14720000     -34.97750000     -73.87820000
H      -42.86570000     -34.62180000     -73.64480000
H      -43.11430000     -32.14250000     -74.18290000
C      -44.82490000     -36.41700000     -73.57450000
H      -43.74460000     -36.60460000     -73.77370000
H      -45.48180000     -36.93870000     -74.26150000
C      -47.95320000     -32.50730000     -73.69270000
H      -48.24610000     -31.75850000     -74.39140000
H      -48.49200000     -33.42930000     -73.99980000
S      -45.46310000     -37.10750000     -71.97040000
S      -48.30130000     -31.87220000     -71.97120000
C      -44.24910000     -36.26570000     -70.81380000
H      -43.55200000     -37.01970000     -70.58160000
H      -43.86820000     -35.37510000     -71.37420000
C      -47.97670000     -33.42920000     -71.03670000
H      -47.32590000     -34.08350000     -71.64050000
H      -48.88590000     -33.97040000     -71.07830000
C      -47.40760000     -33.17360000     -69.66660000
H      -48.24270000     -32.84530000     -69.00420000
H      -47.14770000     -34.15080000     -69.29690000
C      -44.85160000     -35.49700000     -69.55470000
H      -44.48880000     -36.07030000     -68.64310000
H      -45.87370000     -35.61030000     -69.53650000
C      -44.24500000     -34.15180000     -69.46760000
C      -42.87650000     -34.07790000     -69.15460000
C      -44.84680000     -32.82850000     -69.39200000
H      -42.22500000     -34.97090000     -69.22330000
C      -43.91500000     -31.78450000     -69.55580000
C      -46.18730000     -32.30940000     -69.52970000
C      -46.27080000     -30.99760000     -69.76550000
S      -42.25220000     -32.39400000     -69.35720000
S      -44.63350000     -30.27990000     -69.71580000
H      -47.10680000     -30.27470000     -70.01860000
