40
Properties=species:S:1:pos:R:3 #=T CELL(abcABC):=T 1.889726e+02=T 90.00000=T Traj:=T positionsangstrom=T Step:=T 0=T Bead:=T pbc="F F F"
C      -47.95680000     -32.80670000     -68.54580000
C      -48.40790000     -33.56670000     -69.63510000
C      -48.52120000     -32.99310000     -70.90210000
C      -48.07860000     -31.70420000     -71.12240000
C      -47.62480000     -30.91830000     -70.02990000
C      -47.59050000     -31.47430000     -68.74740000
H      -47.75590000     -33.45330000     -67.66510000
H      -48.72360000     -33.58050000     -71.77760000
H      -47.18020000     -29.92360000     -70.28610000
H      -46.99080000     -30.93110000     -68.03300000
C      -48.15390000     -31.16310000     -72.49500000
H      -47.76550000     -30.11600000     -72.61070000
H      -49.23020000     -30.97670000     -72.78380000
C      -48.39010000     -35.10430000     -69.37250000
H      -47.95610000     -35.31210000     -68.32890000
H      -49.42030000     -35.52680000     -69.37860000
S      -47.47810000     -32.32180000     -73.73090000
S      -47.68170000     -36.14040000     -70.70120000
C      -45.65130000     -32.20660000     -73.71620000
H      -45.28750000     -33.12860000     -74.07170000
H      -45.39360000     -31.46030000     -74.46400000
C      -45.82420000     -36.01580000     -70.53550000
H      -45.43620000     -36.58830000     -71.33660000
H      -45.57980000     -36.46210000     -69.59670000
C      -45.31060000     -34.58820000     -70.54600000
H      -45.89360000     -34.07900000     -71.42240000
H      -45.60880000     -33.92520000     -69.69320000
C      -45.02390000     -31.66890000     -72.42790000
H      -45.59290000     -31.88300000     -71.52670000
H      -44.95070000     -30.57100000     -72.40210000
C      -43.60270000     -32.27520000     -72.24630000
C      -42.51570000     -31.60290000     -72.76430000
C      -43.16450000     -33.47680000     -71.55730000
H      -42.55550000     -30.78810000     -73.45240000
C      -41.76070000     -33.59760000     -71.49900000
C      -43.81450000     -34.49530000     -70.78840000
C      -42.86780000     -35.38790000     -70.29310000
S      -40.97580000     -32.45350000     -72.50160000
S      -41.22750000     -34.97830000     -70.72040000
H      -43.14590000     -36.25220000     -69.71910000
