40
Properties=species:S:1:pos:R:3 #=T CELL(abcABC):=T 1.889726e+02=T 90.00000=T Traj:=T positionsangstrom=T Step:=T 0=T Bead:=T pbc="F F F"
C      -43.46380000     -30.08240000     -72.08510000
C      -44.48080000     -31.02150000     -72.08930000
C      -44.71300000     -31.75760000     -70.93730000
C      -43.83780000     -31.69720000     -69.82530000
C      -42.85820000     -30.74370000     -69.81180000
C      -42.67380000     -29.91390000     -70.94770000
H      -43.17950000     -29.58990000     -72.96830000
H      -45.62670000     -32.38020000     -70.95450000
H      -42.17160000     -30.64670000     -68.96290000
H      -41.95570000     -29.07990000     -70.98970000
C      -44.02290000     -32.60230000     -68.69230000
H      -45.03850000     -32.94010000     -68.64620000
H      -43.77400000     -32.22030000     -67.71950000
C      -45.37460000     -31.29830000     -73.33390000
H      -46.28510000     -31.89170000     -72.90600000
H      -45.68630000     -30.40500000     -73.91250000
S      -42.96140000     -34.14560000     -68.73070000
S      -44.58180000     -32.41060000     -74.62480000
C      -43.11260000     -35.02200000     -70.30520000
H      -43.12630000     -34.21210000     -71.11830000
H      -42.22510000     -35.64990000     -70.40020000
C      -44.17350000     -33.95290000     -73.68470000
H      -43.82020000     -33.78100000     -72.65940000
H      -43.25970000     -34.39910000     -74.11230000
C      -45.25900000     -34.90370000     -73.70790000
H      -45.45090000     -35.06690000     -74.81020000
H      -44.82000000     -35.85920000     -73.29110000
C      -44.32250000     -35.88430000     -70.58560000
H      -44.23700000     -36.73580000     -69.93190000
H      -44.12720000     -36.21010000     -71.61780000
C      -45.69740000     -35.28160000     -70.40870000
C      -46.35290000     -35.27240000     -69.18400000
C      -46.52920000     -34.78240000     -71.47100000
H      -46.05550000     -35.60150000     -68.20230000
C      -47.72700000     -34.41110000     -70.95250000
C      -46.40580000     -34.50880000     -72.87410000
C      -47.58040000     -33.94780000     -73.33480000
S      -47.97030000     -34.60470000     -69.23430000
S      -48.84850000     -33.80350000     -72.15600000
H      -47.74690000     -33.58110000     -74.37110000
