40
Properties=species:S:1:pos:R:3 #=T CELL(abcABC):=T 1.889726e+02=T 90.00000=T Traj:=T positionsangstrom=T Step:=T 0=T Bead:=T pbc="F F F"
C      -43.54970000     -30.06160000     -72.08760000
C      -44.56010000     -30.99010000     -72.00990000
C      -44.66460000     -31.82360000     -70.93370000
C      -43.71140000     -31.72380000     -69.84380000
C      -42.76810000     -30.73580000     -69.90080000
C      -42.66090000     -29.90810000     -71.00040000
H      -43.58370000     -29.27330000     -72.84850000
H      -45.50540000     -32.66570000     -70.99540000
H      -42.08020000     -30.65730000     -69.09570000
H      -41.98240000     -29.07950000     -71.19830000
C      -43.87110000     -32.62310000     -68.66410000
H      -44.92770000     -32.85180000     -68.66700000
H      -43.62230000     -32.15360000     -67.69910000
C      -45.45370000     -31.19440000     -73.26060000
H      -46.35920000     -31.74750000     -73.15010000
H      -45.67870000     -30.26140000     -73.79180000
S      -42.81860000     -34.10430000     -68.71380000
S      -44.40070000     -32.08880000     -74.45140000
C      -43.19470000     -34.81030000     -70.42710000
H      -43.55340000     -33.93320000     -70.98900000
H      -42.28270000     -35.02860000     -70.94720000
C      -44.23540000     -33.75730000     -73.64420000
H      -44.31850000     -33.51430000     -72.57330000
H      -43.26050000     -34.15920000     -73.86580000
C      -45.31770000     -34.89910000     -73.78920000
H      -45.77670000     -34.82730000     -74.72260000
H      -44.87580000     -35.84560000     -73.63310000
C      -44.25650000     -35.79460000     -70.58060000
H      -44.21770000     -36.65300000     -69.91040000
H      -44.19270000     -36.39010000     -71.54370000
C      -45.69130000     -35.28290000     -70.42690000
C      -46.25990000     -35.29900000     -69.16040000
C      -46.61830000     -34.86270000     -71.48330000
H      -45.88180000     -35.81890000     -68.26260000
C      -47.84370000     -34.42770000     -70.92920000
C      -46.55440000     -34.68950000     -72.91370000
C      -47.78860000     -34.28830000     -73.46500000
S      -47.99040000     -34.77350000     -69.24460000
S      -48.95170000     -34.00170000     -72.20260000
H      -47.92660000     -34.21050000     -74.48170000
