40
Properties=species:S:1:pos:R:3 #=T CELL(abcABC):=T 1.889726e+02=T 90.00000=T Traj:=T positionsangstrom=T Step:=T 0=T Bead:=T pbc="F F F"
C      -48.15270000     -32.56800000     -69.34350000
C      -48.45770000     -33.40770000     -70.43880000
C      -48.28790000     -33.03420000     -71.76160000
C      -47.96010000     -31.70380000     -72.09460000
C      -47.77960000     -30.77580000     -71.05220000
C      -47.83010000     -31.18880000     -69.72720000
H      -48.16520000     -32.84440000     -68.27370000
H      -48.42970000     -33.75210000     -72.50250000
H      -47.51420000     -29.76460000     -71.25480000
H      -47.54120000     -30.56310000     -68.87400000
C      -47.71310000     -31.20760000     -73.48340000
H      -47.22660000     -30.27150000     -73.50760000
H      -48.64700000     -30.90150000     -73.99880000
C      -48.99650000     -34.80090000     -70.29440000
H      -49.69890000     -34.99230000     -69.39960000
H      -49.58520000     -34.96400000     -71.18840000
S      -46.77740000     -32.40060000     -74.63010000
S      -47.81400000     -36.24340000     -70.35010000
C      -45.28690000     -32.86740000     -73.73180000
H      -45.41240000     -33.91480000     -73.38430000
H      -44.44060000     -32.91150000     -74.53380000
C      -46.21380000     -35.62660000     -69.58950000
H      -45.70330000     -36.46050000     -69.15090000
H      -46.47800000     -35.01070000     -68.73030000
C      -45.40920000     -34.85290000     -70.56800000
H      -45.56080000     -35.36500000     -71.55530000
H      -45.81870000     -33.89610000     -70.71370000
C      -44.87080000     -31.95760000     -72.55000000
H      -45.76560000     -32.01110000     -71.83870000
H      -44.90270000     -30.89440000     -72.82820000
C      -43.59630000     -32.31070000     -71.87160000
C      -42.45240000     -31.72870000     -72.20970000
C      -43.22640000     -33.54900000     -71.07960000
H      -42.35470000     -30.80180000     -72.77570000
C      -41.85830000     -33.57340000     -70.75450000
C      -43.93460000     -34.60950000     -70.36970000
C      -43.07630000     -35.37640000     -69.62280000
S      -40.95100000     -32.31390000     -71.55400000
S      -41.43850000     -34.88100000     -69.71780000
H      -43.33420000     -36.28230000     -69.09710000
