40
Properties=species:S:1:pos:R:3 #=T CELL(abcABC):=T 1.889726e+02=T 90.00000=T Traj:=T positionsangstrom=T Step:=T 0=T Bead:=T pbc="F F F"
C      -43.22800000     -30.22370000     -72.07210000
C      -44.30670000     -31.11370000     -72.28270000
C      -44.60450000     -31.91850000     -71.16840000
C      -43.96670000     -31.78720000     -69.88970000
C      -42.90260000     -30.89080000     -69.72810000
C      -42.63190000     -30.10830000     -70.84740000
H      -43.03380000     -29.52330000     -72.84070000
H      -45.46620000     -32.62110000     -71.24210000
H      -42.31670000     -30.81190000     -68.81370000
H      -41.91480000     -29.32630000     -70.71700000
C      -44.36900000     -32.71430000     -68.78230000
H      -45.43050000     -33.09410000     -68.98920000
H      -44.54060000     -32.24550000     -67.76900000
C      -45.12590000     -31.16750000     -73.55310000
H      -46.15740000     -31.32250000     -73.25540000
H      -45.08260000     -30.23800000     -73.99110000
S      -43.25130000     -34.22870000     -68.57500000
S      -44.79380000     -32.46780000     -74.90330000
C      -43.17310000     -35.04480000     -70.29170000
H      -43.15160000     -34.33770000     -71.10880000
H      -42.20400000     -35.54540000     -70.40420000
C      -44.27010000     -33.97220000     -74.01360000
H      -43.61820000     -33.64090000     -73.16930000
H      -43.48550000     -34.43780000     -74.66550000
C      -45.36810000     -35.02070000     -73.74640000
H      -45.76080000     -35.21940000     -74.72980000
H      -44.96000000     -35.95080000     -73.35280000
C      -44.34500000     -36.03930000     -70.40940000
H      -44.22150000     -36.94800000     -69.77420000
H      -44.26840000     -36.41860000     -71.45670000
C      -45.71560000     -35.44700000     -70.31890000
C      -46.31240000     -35.34830000     -69.09410000
C      -46.48650000     -34.74390000     -71.34290000
H      -45.87990000     -35.66610000     -68.17320000
C      -47.58720000     -34.13160000     -70.83580000
C      -46.41770000     -34.55640000     -72.77210000
C      -47.48700000     -33.83870000     -73.27410000
S      -47.83290000     -34.47280000     -69.09680000
S      -48.57410000     -33.40430000     -72.06090000
H      -47.64650000     -33.61970000     -74.33560000
