40
Properties=species:S:1:pos:R:3 #=T CELL(abcABC):=T 1.889726e+02=T 90.00000=T Traj:=T positionsangstrom=T Step:=T 0=T Bead:=T pbc="F F F"
C      -48.12540000     -32.55080000     -69.82930000
C      -48.53470000     -33.45420000     -70.82020000
C      -48.31570000     -33.05760000     -72.13690000
C      -47.95380000     -31.73960000     -72.48930000
C      -47.52160000     -30.85010000     -71.44910000
C      -47.61640000     -31.28480000     -70.14320000
H      -48.25180000     -32.75430000     -68.77740000
H      -48.29700000     -33.84290000     -72.93080000
H      -47.44850000     -29.77630000     -71.71850000
H      -47.45310000     -30.65160000     -69.31450000
C      -47.79920000     -31.64270000     -73.96990000
H      -48.39320000     -30.71950000     -74.30110000
H      -48.16310000     -32.48920000     -74.54100000
C      -49.10870000     -34.82760000     -70.44780000
H      -49.30230000     -34.88670000     -69.43820000
H      -50.02370000     -34.90840000     -71.01680000
S      -46.05130000     -31.19510000     -74.47120000
S      -48.03190000     -36.24820000     -71.08260000
C      -45.05900000     -32.46990000     -73.55140000
H      -45.77900000     -33.29780000     -73.33690000
H      -44.39660000     -32.90290000     -74.26700000
C      -46.42040000     -35.82770000     -70.29680000
H      -45.78150000     -36.69150000     -70.45670000
H      -46.43170000     -35.61210000     -69.20500000
C      -45.60960000     -34.69850000     -70.98210000
H      -45.70780000     -34.75360000     -72.09660000
H      -45.96860000     -33.68390000     -70.74270000
C      -44.35350000     -31.79880000     -72.40040000
H      -45.12450000     -31.45240000     -71.60800000
H      -43.92860000     -30.78180000     -72.74730000
C      -43.24430000     -32.50740000     -71.67210000
C      -42.08250000     -31.81540000     -71.59560000
C      -43.29390000     -33.69970000     -70.86600000
H      -41.72540000     -30.95850000     -72.12030000
C      -42.08140000     -33.87030000     -70.20680000
C      -44.19540000     -34.78790000     -70.51780000
C      -43.73190000     -35.60350000     -69.50510000
S      -40.89060000     -32.67830000     -70.61730000
S      -42.03620000     -35.17810000     -69.07530000
H      -44.13850000     -36.53470000     -69.13420000
