40
Properties=species:S:1:pos:R:3 #=T CELL(abcABC):=T 1.889726e+02=T 90.00000=T Traj:=T positionsangstrom=T Step:=T 0=T Bead:=T pbc="F F F"
C      -48.15150000     -32.57630000     -69.72020000
C      -48.62460000     -33.50850000     -70.64740000
C      -48.61090000     -33.04210000     -71.99070000
C      -47.95690000     -31.83190000     -72.37900000
C      -47.39880000     -31.02390000     -71.39250000
C      -47.50340000     -31.41650000     -70.02700000
H      -48.20360000     -32.86380000     -68.63780000
H      -49.13530000     -33.64780000     -72.70560000
H      -46.74120000     -30.23450000     -71.66480000
H      -46.92720000     -30.95480000     -69.22300000
C      -47.85050000     -31.30510000     -73.79980000
H      -48.23060000     -30.27720000     -73.86510000
H      -48.51760000     -31.90300000     -74.40010000
C      -49.18070000     -34.85660000     -70.37730000
H      -49.18810000     -35.14890000     -69.25730000
H      -50.27180000     -35.03340000     -70.67560000
S      -46.13030000     -31.44100000     -74.63060000
S      -48.08110000     -35.98690000     -71.28420000
C      -45.07730000     -32.55010000     -73.43330000
H      -45.60920000     -33.34930000     -72.90750000
H      -44.36640000     -33.00770000     -74.12480000
C      -46.54140000     -35.84930000     -70.29400000
H      -46.18670000     -36.89900000     -70.21950000
H      -46.85960000     -35.53530000     -69.28550000
C      -45.58070000     -34.85650000     -70.99850000
H      -45.46170000     -35.08440000     -72.06080000
H      -46.07490000     -33.90870000     -71.00020000
C      -44.31780000     -31.79920000     -72.35350000
H      -45.07200000     -31.63970000     -71.60040000
H      -43.99840000     -30.92160000     -72.81680000
C      -43.17020000     -32.42590000     -71.67040000
C      -41.94550000     -31.86310000     -71.66570000
C      -43.24160000     -33.59240000     -70.80680000
H      -41.63220000     -31.06090000     -72.26330000
C      -41.99420000     -33.84600000     -70.24350000
C      -44.21380000     -34.57550000     -70.36900000
C      -43.65800000     -35.46850000     -69.47590000
S      -40.81890000     -32.65050000     -70.62340000
S      -41.98070000     -35.22640000     -69.23720000
H      -44.15620000     -36.25040000     -68.93840000
