40
Properties=species:S:1:pos:R:3 #=T CELL(abcABC):=T 1.889726e+02=T 90.00000=T Traj:=T positionsangstrom=T Step:=T 0=T Bead:=T pbc="F F F"
C      -48.35230000     -32.50030000     -69.92800000
C      -48.61150000     -33.46430000     -70.89380000
C      -48.41540000     -33.12440000     -72.27110000
C      -47.97500000     -31.88150000     -72.66700000
C      -47.79480000     -30.89810000     -71.67780000
C      -47.99260000     -31.20250000     -70.37510000
H      -48.45940000     -32.66490000     -68.88610000
H      -48.81710000     -33.67920000     -73.13710000
H      -47.21130000     -29.95080000     -71.86350000
H      -47.70090000     -30.43120000     -69.65840000
C      -47.71660000     -31.57430000     -74.10530000
H      -48.38380000     -30.77430000     -74.44020000
H      -47.95770000     -32.40970000     -74.73040000
C      -49.03410000     -34.86850000     -70.30650000
H      -48.95410000     -34.84860000     -69.18210000
H      -50.12700000     -35.07020000     -70.55050000
S      -45.95600000     -30.93820000     -74.44880000
S      -48.10560000     -36.37520000     -70.89400000
C      -44.85430000     -32.16700000     -73.68500000
H      -45.22920000     -33.14480000     -73.72070000
H      -43.87730000     -32.07800000     -74.25800000
C      -46.35130000     -36.10760000     -70.30600000
H      -45.91440000     -37.08190000     -70.46700000
H      -46.43710000     -35.95700000     -69.22070000
C      -45.56050000     -34.95170000     -70.95770000
H      -45.37630000     -35.14490000     -72.03010000
H      -46.17190000     -34.04360000     -70.75570000
C      -44.61590000     -31.89600000     -72.14080000
H      -45.38030000     -32.44790000     -71.57920000
H      -44.78660000     -30.89410000     -71.80800000
C      -43.28230000     -32.49860000     -71.67900000
C      -42.08360000     -31.85410000     -71.65970000
C      -43.24160000     -33.63940000     -70.75340000
H      -41.78300000     -30.94880000     -72.20500000
C      -41.97540000     -33.79820000     -70.11640000
C      -44.16200000     -34.77520000     -70.39940000
C      -43.63610000     -35.60940000     -69.42840000
S      -40.79490000     -32.60090000     -70.62860000
S      -41.91830000     -35.21730000     -69.10050000
H      -43.98470000     -36.60640000     -69.20150000
