40
Properties=species:S:1:pos:R:3 #=T CELL(abcABC):=T 1.889726e+02=T 90.00000=T Traj:=T positionsangstrom=T Step:=T 0=T Bead:=T pbc="F F F"
C      -44.30010000     -29.46790000     -70.93910000
C      -45.23500000     -30.46480000     -71.15770000
C      -45.06110000     -31.69580000     -70.44030000
C      -43.99710000     -31.82170000     -69.49150000
C      -43.08230000     -30.79890000     -69.31620000
C      -43.22380000     -29.61550000     -70.07840000
H      -44.33250000     -28.47510000     -71.46170000
H      -45.71330000     -32.48070000     -70.58880000
H      -42.20080000     -30.92340000     -68.65430000
H      -42.53940000     -28.79620000     -69.90770000
C      -43.96760000     -33.04470000     -68.58410000
H      -44.94700000     -33.41930000     -68.33690000
H      -43.53830000     -32.76710000     -67.58720000
C      -46.20300000     -30.35250000     -72.34030000
H      -47.08530000     -30.95090000     -72.16640000
H      -46.57960000     -29.32270000     -72.41980000
S      -42.86810000     -34.39920000     -69.16300000
S      -45.50250000     -31.02570000     -73.90690000
C      -42.93240000     -34.39010000     -70.95640000
H      -43.54390000     -33.55100000     -71.32650000
H      -41.87630000     -34.10970000     -71.27760000
C      -44.42140000     -32.56260000     -73.59960000
H      -44.03340000     -32.64860000     -72.59100000
H      -43.54450000     -32.46160000     -74.23600000
C      -45.09680000     -33.86120000     -74.05010000
H      -45.56800000     -33.68030000     -75.08060000
H      -44.33220000     -34.56000000     -74.09320000
C      -43.51750000     -35.67960000     -71.56400000
H      -43.01960000     -36.60500000     -71.10750000
H      -43.34850000     -35.86910000     -72.61590000
C      -45.02550000     -35.74770000     -71.22930000
C      -45.45060000     -36.49650000     -70.11110000
C      -46.09500000     -35.19800000     -71.95290000
H      -44.87310000     -36.97610000     -69.41210000
C      -47.30780000     -35.22120000     -71.27040000
C      -46.27730000     -34.31460000     -73.11760000
C      -47.60870000     -33.92180000     -73.31160000
S      -47.24100000     -36.28880000     -69.93620000
S      -48.65410000     -34.45410000     -72.02610000
H      -47.97670000     -33.30630000     -74.18870000
