40
Properties=species:S:1:pos:R:3 #=T CELL(abcABC):=T 1.889726e+02=T 90.00000=T Traj:=T positionsangstrom=T Step:=T 0=T Bead:=T pbc="F F F"
C      -48.25380000     -32.53040000     -69.61460000
C      -48.45740000     -33.35970000     -70.69520000
C      -48.19190000     -32.88120000     -71.97990000
C      -47.73450000     -31.57870000     -72.19950000
C      -47.51370000     -30.72020000     -71.05920000
C      -47.79480000     -31.16140000     -69.77410000
H      -48.22740000     -33.07500000     -68.69730000
H      -48.24760000     -33.53000000     -72.83210000
H      -47.16870000     -29.64300000     -71.26420000
H      -47.46270000     -30.58360000     -68.92640000
C      -47.55630000     -30.95660000     -73.57160000
H      -47.04570000     -29.98730000     -73.39870000
H      -48.43710000     -30.87220000     -74.18670000
C      -48.94980000     -34.72230000     -70.28220000
H      -49.03240000     -34.80440000     -69.14290000
H      -49.90300000     -34.88160000     -70.79550000
S      -46.38090000     -31.99300000     -74.63530000
S      -48.00990000     -36.08210000     -71.16160000
C      -44.85340000     -32.61680000     -73.69540000
H      -44.88830000     -33.70190000     -73.43110000
H      -43.94300000     -32.54350000     -74.32590000
C      -46.43260000     -35.96470000     -70.30930000
H      -45.94090000     -36.95600000     -70.40760000
H      -46.58480000     -35.79300000     -69.23250000
C      -45.61140000     -34.84900000     -70.83320000
H      -45.56170000     -34.90640000     -71.88970000
H      -46.12360000     -33.88120000     -70.67290000
C      -44.54440000     -31.86850000     -72.42890000
H      -45.42370000     -31.78790000     -71.79300000
H      -44.28700000     -30.83070000     -72.72470000
C      -43.38270000     -32.51300000     -71.77310000
C      -42.19050000     -31.89390000     -71.86400000
C      -43.35520000     -33.66010000     -70.86750000
H      -42.00140000     -30.92290000     -72.39140000
C      -42.08620000     -33.76830000     -70.36080000
C      -44.24030000     -34.63510000     -70.34090000
C      -43.57430000     -35.50120000     -69.47610000
S      -40.93170000     -32.58410000     -70.86670000
S      -41.87330000     -35.17840000     -69.32000000
H      -43.98650000     -36.44630000     -69.09250000
