40
Properties=species:S:1:pos:R:3 #=T CELL(abcABC):=T 1.889726e+02=T 90.00000=T Traj:=T positionsangstrom=T Step:=T 0=T Bead:=T pbc="F F F"
C      -44.98820000     -29.67020000     -70.42690000
C      -45.70240000     -30.83440000     -70.80380000
C      -45.33660000     -32.05280000     -70.16250000
C      -44.20310000     -32.20970000     -69.40560000
C      -43.40980000     -31.06890000     -69.22980000
C      -43.77750000     -29.77390000     -69.68580000
H      -45.34460000     -28.74250000     -70.82520000
H      -46.01800000     -32.82770000     -70.40080000
H      -42.43350000     -31.23100000     -68.78300000
H      -43.19890000     -28.87460000     -69.64900000
C      -43.84530000     -33.56010000     -68.70220000
H      -44.56600000     -34.34700000     -68.77750000
H      -43.67270000     -33.50720000     -67.62580000
C      -46.76480000     -30.90050000     -71.83580000
H      -47.37020000     -31.78070000     -71.75380000
H      -47.31590000     -29.96420000     -71.77690000
S      -42.24860000     -34.26340000     -69.28690000
S      -46.13160000     -30.77630000     -73.58300000
C      -42.55490000     -34.31220000     -71.09090000
H      -43.14120000     -33.42270000     -71.45240000
H      -41.63480000     -34.34350000     -71.64050000
C      -44.67930000     -31.95670000     -73.51160000
H      -44.22180000     -31.98150000     -72.53320000
H      -43.82540000     -31.50640000     -74.02300000
C      -44.80810000     -33.44730000     -73.97260000
H      -44.99290000     -33.55550000     -75.06820000
H      -43.84260000     -33.92600000     -73.81510000
C      -43.31380000     -35.57080000     -71.45060000
H      -43.02560000     -36.52610000     -70.90880000
H      -43.06640000     -35.68720000     -72.51000000
C      -44.76490000     -35.51530000     -71.25240000
C      -45.29170000     -36.27090000     -70.21130000
C      -45.85620000     -34.92660000     -72.08490000
H      -44.73100000     -36.71180000     -69.39760000
C      -47.15700000     -35.13460000     -71.49540000
C      -45.93760000     -34.20710000     -73.32280000
C      -47.24800000     -34.05060000     -73.72110000
S      -47.03450000     -36.19710000     -70.04240000
S      -48.51020000     -34.58410000     -72.60040000
H      -47.53300000     -33.37710000     -74.46280000
