40
Properties=species:S:1:pos:R:3 #=T CELL(abcABC):=T 1.889726e+02=T 90.00000=T Traj:=T positionsangstrom=T Step:=T 0=T Bead:=T pbc="F F F"
C      -44.73350000     -29.83680000     -70.80060000
C      -45.57950000     -30.92050000     -70.86950000
C      -45.34920000     -32.04880000     -70.11130000
C      -44.29020000     -32.11810000     -69.19250000
C      -43.39130000     -31.07640000     -69.15620000
C      -43.65190000     -29.91980000     -69.87310000
H      -44.99380000     -28.97230000     -71.46750000
H      -45.98890000     -32.87650000     -70.40490000
H      -42.54830000     -31.15810000     -68.41880000
H      -42.99530000     -29.02370000     -69.81010000
C      -43.92800000     -33.42530000     -68.50510000
H      -44.77760000     -34.11650000     -68.64760000
H      -43.70690000     -33.20700000     -67.41710000
C      -46.65380000     -30.78180000     -71.81280000
H      -47.43750000     -31.47780000     -71.65510000
H      -47.17840000     -29.80050000     -71.75380000
S      -42.34800000     -34.04600000     -69.32340000
S      -45.99320000     -30.96270000     -73.53250000
C      -42.61120000     -34.21480000     -71.12740000
H      -43.22210000     -33.42620000     -71.46580000
H      -41.64890000     -34.18270000     -71.70240000
C      -44.50600000     -32.05720000     -73.48540000
H      -44.19400000     -32.16500000     -72.41940000
H      -43.74370000     -31.57280000     -74.12230000
C      -44.87090000     -33.45320000     -74.06320000
H      -45.12040000     -33.28780000     -75.15210000
H      -44.00140000     -34.05570000     -74.19630000
C      -43.43820000     -35.45660000     -71.63880000
H      -42.90630000     -36.42080000     -71.51640000
H      -43.48530000     -35.28820000     -72.69370000
C      -44.87330000     -35.61650000     -71.24250000
C      -45.34920000     -36.36520000     -70.15930000
C      -45.91350000     -34.96210000     -72.06200000
H      -44.85780000     -36.69670000     -69.23910000
C      -47.19930000     -35.32040000     -71.59540000
C      -45.95000000     -34.15590000     -73.22950000
C      -47.24440000     -33.74650000     -73.51510000
S      -47.13400000     -36.23730000     -70.08860000
S      -48.47550000     -34.61150000     -72.50830000
H      -47.56810000     -33.26650000     -74.34680000
