40
Properties=species:S:1:pos:R:3 #=T CELL(abcABC):=T 1.889726e+02=T 90.00000=T Traj:=T positionsangstrom=T Step:=T 0=T Bead:=T pbc="F F F"
C      -44.68910000     -29.80560000     -70.26680000
C      -45.42090000     -30.92570000     -70.62170000
C      -45.21710000     -32.13080000     -70.00200000
C      -44.40540000     -32.23700000     -68.89860000
C      -43.66110000     -31.09360000     -68.58190000
C      -43.79030000     -29.85810000     -69.18260000
H      -44.80650000     -28.84220000     -70.75610000
H      -45.85430000     -32.92660000     -70.25420000
H      -42.92630000     -31.12590000     -67.71450000
H      -43.14300000     -28.99180000     -68.98250000
C      -44.07430000     -33.57550000     -68.35430000
H      -44.89800000     -34.29690000     -68.37750000
H      -43.71430000     -33.70340000     -67.32450000
C      -46.44050000     -30.96650000     -71.73820000
H      -46.97950000     -31.91620000     -71.72570000
H      -47.08660000     -30.00000000     -71.76320000
S      -42.58370000     -34.36160000     -69.27820000
S      -45.81800000     -30.77350000     -73.51590000
C      -42.72140000     -33.96080000     -71.08240000
H      -43.28540000     -33.03480000     -71.07580000
H      -41.71540000     -33.71560000     -71.36660000
C      -44.60360000     -32.10560000     -73.87320000
H      -44.05180000     -32.19980000     -72.87980000
H      -43.86980000     -31.74490000     -74.62470000
C      -45.24250000     -33.43750000     -74.37390000
H      -45.50730000     -33.29270000     -75.46980000
H      -44.44990000     -34.14650000     -74.53350000
C      -43.35630000     -34.98170000     -72.05210000
H      -42.61620000     -35.86580000     -71.93810000
H      -43.28090000     -34.53930000     -73.03450000
C      -44.80380000     -35.37420000     -71.73200000
C      -44.98970000     -36.18570000     -70.62610000
C      -45.98810000     -34.94020000     -72.34200000
H      -44.11460000     -36.45990000     -70.05310000
C      -47.16610000     -35.35090000     -71.63500000
C      -46.30060000     -34.09580000     -73.49670000
C      -47.61340000     -33.80000000     -73.60350000
S      -46.62170000     -36.31910000     -70.24640000
S      -48.56980000     -34.67940000     -72.41050000
H      -48.11360000     -33.16220000     -74.33560000
