40
Properties=species:S:1:pos:R:3 #=T CELL(abcABC):=T 1.889726e+02=T 90.00000=T Traj:=T positionsangstrom=T Step:=T 0=T Bead:=T pbc="F F F"
C      -44.39770000     -29.59920000     -70.94400000
C      -45.18330000     -30.78050000     -71.15440000
C      -45.00410000     -31.86850000     -70.27090000
C      -43.99390000     -31.95220000     -69.35190000
C      -43.09160000     -30.84980000     -69.25650000
C      -43.34770000     -29.71460000     -70.01970000
H      -44.57660000     -28.64040000     -71.36480000
H      -45.55540000     -32.76890000     -70.46380000
H      -42.23980000     -30.94350000     -68.61190000
H      -42.71970000     -28.89070000     -69.76650000
C      -43.88130000     -33.07630000     -68.40680000
H      -44.71020000     -33.73560000     -68.17760000
H      -43.45750000     -32.76580000     -67.45660000
C      -46.31380000     -30.70430000     -72.17520000
H      -47.08310000     -31.43480000     -72.01160000
H      -46.69490000     -29.75590000     -72.22100000
S      -42.50780000     -34.30520000     -69.08190000
S      -45.67390000     -30.85750000     -73.87290000
C      -42.88690000     -34.23280000     -70.94750000
H      -43.48040000     -33.30850000     -71.20950000
H      -41.90150000     -34.22930000     -71.46590000
C      -44.57520000     -32.32930000     -73.97070000
H      -43.90040000     -32.29680000     -73.12380000
H      -43.87470000     -32.11790000     -74.74760000
C      -45.20510000     -33.70480000     -74.13990000
H      -45.71400000     -33.65290000     -75.08430000
H      -44.35010000     -34.51980000     -74.25500000
C      -43.58460000     -35.52710000     -71.47620000
H      -42.92300000     -36.28950000     -71.13400000
H      -43.58340000     -35.59600000     -72.59080000
C      -45.05620000     -35.57100000     -71.03730000
C      -45.53470000     -36.35350000     -70.00600000
C      -46.09560000     -34.97670000     -71.85880000
H      -44.88490000     -37.08270000     -69.53480000
C      -47.33870000     -35.34920000     -71.39820000
C      -46.22410000     -34.10230000     -73.05240000
C      -47.50750000     -33.78180000     -73.31660000
S      -47.25540000     -36.39220000     -70.01340000
S      -48.65910000     -34.67490000     -72.32870000
H      -47.80690000     -33.06440000     -74.08390000
