40
Properties=species:S:1:pos:R:3 #=T CELL(abcABC):=T 1.889726e+02=T 90.00000=T Traj:=T positionsangstrom=T Step:=T 0=T Bead:=T pbc="F F F"
C      -45.69080000     -29.95950000     -69.65510000
C      -46.28300000     -31.01510000     -70.40360000
C      -45.85850000     -32.33170000     -70.20820000
C      -45.13020000     -32.64150000     -69.03530000
C      -44.68150000     -31.64800000     -68.16440000
C      -44.84110000     -30.29310000     -68.54440000
H      -45.92080000     -28.84870000     -69.83230000
H      -46.28320000     -33.18130000     -70.72260000
H      -44.19460000     -31.84760000     -67.19610000
H      -44.46950000     -29.39450000     -67.98880000
C      -44.84710000     -34.08600000     -68.58110000
H      -45.35640000     -34.73950000     -69.30970000
H      -45.19660000     -34.24900000     -67.51900000
C      -47.25250000     -30.68500000     -71.51480000
H      -47.98270000     -31.49510000     -71.74010000
H      -47.76130000     -29.73170000     -71.28730000
S      -43.09450000     -34.53240000     -68.77250000
S      -46.33270000     -30.33230000     -73.17600000
C      -42.61390000     -33.75310000     -70.39970000
H      -43.29860000     -32.95710000     -70.62860000
H      -41.57020000     -33.45350000     -70.23140000
C      -44.65930000     -31.15070000     -73.00290000
H      -44.31570000     -31.38260000     -71.98320000
H      -44.01060000     -30.31930000     -73.34920000
C      -44.44380000     -32.46760000     -73.83040000
H      -44.64640000     -32.21770000     -74.84530000
H      -43.33530000     -32.68160000     -73.73950000
C      -42.65880000     -34.73820000     -71.53220000
H      -41.92010000     -35.55250000     -71.41110000
H      -42.45530000     -34.16870000     -72.43360000
C      -44.04940000     -35.32860000     -71.76540000
C      -44.47180000     -36.48690000     -71.13120000
C      -45.23120000     -34.69950000     -72.47000000
H      -43.84000000     -37.24270000     -70.69100000
C      -46.36030000     -35.43570000     -72.33460000
C      -45.39910000     -33.62600000     -73.42410000
C      -46.69700000     -33.44820000     -73.82070000
S      -46.14690000     -36.88650000     -71.38240000
S      -47.66140000     -34.88950000     -73.32840000
H      -47.07440000     -32.65580000     -74.37530000
