40
Properties=species:S:1:pos:R:3 #=T CELL(abcABC):=T 1.889726e+02=T 90.00000=T Traj:=T positionsangstrom=T Step:=T 0=T Bead:=T pbc="F F F"
C      -45.25990000     -29.77610000     -69.56470000
C      -45.84170000     -30.77620000     -70.34560000
C      -45.60270000     -32.16430000     -70.08020000
C      -44.78960000     -32.49820000     -68.94600000
C      -44.17440000     -31.47170000     -68.14710000
C      -44.44510000     -30.12140000     -68.47850000
H      -45.43190000     -28.71390000     -69.66400000
H      -46.08680000     -32.87320000     -70.66720000
H      -43.46670000     -31.64100000     -67.33250000
H      -43.89830000     -29.25860000     -67.98330000
C      -44.46230000     -33.90280000     -68.66400000
H      -45.16240000     -34.64270000     -69.16010000
H      -44.40090000     -33.99550000     -67.53980000
C      -46.79420000     -30.51530000     -71.49640000
H      -47.59280000     -31.24110000     -71.40230000
H      -47.30560000     -29.55660000     -71.30330000
S      -42.69930000     -34.37090000     -69.20700000
S      -45.95810000     -30.44690000     -73.15070000
C      -42.62800000     -33.75190000     -70.87830000
H      -43.32900000     -32.96040000     -71.04050000
H      -41.65830000     -33.44920000     -71.07550000
C      -44.71140000     -31.71760000     -72.99620000
H      -44.73820000     -31.81520000     -71.89560000
H      -43.79540000     -31.17490000     -73.19600000
C      -44.78130000     -32.88160000     -73.97180000
H      -45.06990000     -32.63950000     -75.02340000
H      -43.82810000     -33.39210000     -73.99720000
C      -42.98230000     -34.93660000     -71.88080000
H      -42.40420000     -35.87510000     -71.74340000
H      -42.63340000     -34.65930000     -72.84210000
C      -44.43990000     -35.39340000     -71.87750000
C      -44.76920000     -36.45360000     -70.99810000
C      -45.54350000     -34.84370000     -72.52850000
H      -44.25090000     -36.97810000     -70.20310000
C      -46.73070000     -35.51940000     -72.24300000
C      -45.86170000     -33.82110000     -73.53790000
C      -47.18330000     -33.65820000     -73.82850000
S      -46.52080000     -36.72720000     -71.02890000
S      -48.15160000     -34.88440000     -72.98440000
H      -47.58240000     -33.10130000     -74.70470000
