40
Properties=species:S:1:pos:R:3 #=T CELL(abcABC):=T 1.889726e+02=T 90.00000=T Traj:=T positionsangstrom=T Step:=T 0=T Bead:=T pbc="F F F"
C      -46.42490000     -30.74810000     -68.83260000
C      -46.68610000     -31.65140000     -69.89170000
C      -46.16010000     -32.91380000     -69.82730000
C      -45.24740000     -33.32850000     -68.80110000
C      -44.93480000     -32.40400000     -67.78520000
C      -45.61950000     -31.10860000     -67.80180000
H      -46.69160000     -29.75280000     -68.87980000
H      -46.34090000     -33.56860000     -70.65210000
H      -44.32770000     -32.54720000     -66.89340000
H      -45.26590000     -30.42050000     -67.04270000
C      -44.64570000     -34.71030000     -68.86960000
H      -45.15620000     -35.23700000     -69.75520000
H      -44.82200000     -35.22370000     -67.95090000
C      -47.46360000     -31.11880000     -71.06690000
H      -47.98200000     -31.95910000     -71.70090000
H      -48.28080000     -30.53690000     -70.69080000
S      -42.85780000     -34.78320000     -69.17810000
S      -46.41810000     -29.94520000     -71.98980000
C      -42.54280000     -33.57130000     -70.58140000
H      -43.21960000     -32.72580000     -70.50190000
H      -41.50430000     -33.19510000     -70.34690000
C      -44.79860000     -30.82670000     -72.02790000
H      -44.74150000     -31.40720000     -71.12470000
H      -43.87590000     -30.21530000     -71.90210000
C      -44.58600000     -31.70740000     -73.31500000
H      -44.77330000     -31.08210000     -74.21280000
H      -43.51490000     -31.95310000     -73.26500000
C      -42.61680000     -34.21820000     -72.03380000
H      -41.69730000     -34.85750000     -72.23410000
H      -42.56890000     -33.36480000     -72.73120000
C      -43.91950000     -34.92930000     -72.23840000
C      -44.12270000     -36.24740000     -71.96440000
C      -45.08250000     -34.32430000     -72.84250000
H      -43.48190000     -36.83180000     -71.30630000
C      -46.10300000     -35.23790000     -73.04700000
C      -45.41700000     -32.99070000     -73.35040000
C      -46.68570000     -32.99730000     -73.84920000
S      -45.70070000     -36.86390000     -72.47900000
S      -47.49480000     -34.54900000     -73.76030000
H      -47.20600000     -32.34830000     -74.46060000
