40
Properties=species:S:1:pos:R:3 #=T CELL(abcABC):=T 1.889726e+02=T 90.00000=T Traj:=T positionsangstrom=T Step:=T 0=T Bead:=T pbc="F F F"
C      -46.42120000     -30.97370000     -68.87940000
C      -46.69720000     -31.86070000     -69.92310000
C      -46.16400000     -33.12740000     -69.89470000
C      -45.19750000     -33.49560000     -68.94440000
C      -44.86390000     -32.52810000     -67.89620000
C      -45.53090000     -31.33180000     -67.84910000
H      -46.97570000     -30.08090000     -68.77240000
H      -46.65550000     -33.81550000     -70.65020000
H      -44.19770000     -32.69860000     -67.08800000
H      -45.44120000     -30.77650000     -66.94610000
C      -44.43290000     -34.80400000     -68.90390000
H      -44.75520000     -35.49120000     -69.67230000
H      -44.63110000     -35.36290000     -68.02810000
C      -47.51920000     -31.27250000     -71.10450000
H      -47.75440000     -32.03490000     -71.81960000
H      -48.39290000     -30.72460000     -70.74010000
S      -42.56760000     -34.55500000     -69.04030000
S      -46.50550000     -30.00680000     -71.97050000
C      -42.58890000     -33.44120000     -70.56290000
H      -43.40350000     -32.74840000     -70.55790000
H      -41.60180000     -32.95820000     -70.57770000
C      -44.85380000     -30.65670000     -72.16580000
H      -44.47350000     -31.14980000     -71.19410000
H      -44.24180000     -29.81810000     -72.47330000
C      -44.67430000     -31.66600000     -73.33980000
H      -44.79770000     -31.20750000     -74.25760000
H      -43.60480000     -31.96600000     -73.22190000
C      -42.60400000     -34.22470000     -71.93280000
H      -41.90980000     -34.99300000     -71.97220000
H      -42.33820000     -33.54030000     -72.75180000
C      -43.94100000     -34.81880000     -72.22210000
C      -44.05850000     -36.17710000     -72.08610000
C      -45.19640000     -34.22980000     -72.75690000
H      -43.30220000     -36.80250000     -71.73820000
C      -46.16520000     -35.18180000     -73.01270000
C      -45.56940000     -32.88980000     -73.23100000
C      -46.79600000     -32.89070000     -73.84540000
S      -45.68070000     -36.83180000     -72.51540000
S      -47.62420000     -34.51450000     -73.68470000
H      -47.35080000     -32.09160000     -74.37290000
