40
Properties=species:S:1:pos:R:3 #=T CELL(abcABC):=T 1.889726e+02=T 90.00000=T Traj:=T positionsangstrom=T Step:=T 0=T Bead:=T pbc="F F F"
C      -46.18150000     -30.40630000     -69.04750000
C      -46.44420000     -31.25470000     -70.11440000
C      -46.18100000     -32.62100000     -70.07180000
C      -45.77970000     -33.16380000     -68.79370000
C      -45.59050000     -32.35230000     -67.67850000
C      -45.78690000     -30.98880000     -67.81270000
H      -46.32160000     -29.34060000     -69.11540000
H      -46.18520000     -33.33130000     -70.89130000
H      -45.13400000     -32.77680000     -66.84650000
H      -45.48890000     -30.29010000     -66.98380000
C      -45.55530000     -34.65450000     -68.82470000
H      -46.00460000     -35.17030000     -69.71630000
H      -45.86040000     -35.15380000     -67.88620000
C      -46.94450000     -30.67240000     -71.44370000
H      -47.32990000     -31.63630000     -72.03740000
H      -47.77770000     -29.89340000     -71.23420000
S      -43.69670000     -34.95450000     -68.72140000
S      -45.47070000     -29.84290000     -72.18220000
C      -43.07560000     -33.84320000     -70.10180000
H      -43.98790000     -33.22580000     -70.31760000
H      -42.16140000     -33.41080000     -69.81530000
C      -44.09850000     -31.11310000     -72.01570000
H      -44.17210000     -31.61560000     -71.06450000
H      -43.13360000     -30.60150000     -71.99720000
C      -43.96740000     -32.03730000     -73.27880000
H      -44.10470000     -31.51240000     -74.18030000
H      -42.96280000     -32.48560000     -73.23710000
C      -42.72120000     -34.72230000     -71.38670000
H      -41.87320000     -35.42160000     -71.24260000
H      -42.24560000     -33.90520000     -71.96430000
C      -43.97350000     -35.28650000     -72.03450000
C      -44.42820000     -36.62780000     -71.90590000
C      -44.92400000     -34.46870000     -72.83930000
H      -43.87060000     -37.40160000     -71.26160000
C      -46.05480000     -35.25180000     -73.24480000
C      -44.99500000     -33.14080000     -73.43130000
C      -46.17030000     -32.89120000     -74.09200000
S      -46.09180000     -36.85720000     -72.53110000
S      -47.29810000     -34.25070000     -74.00980000
H      -46.30250000     -32.05730000     -74.77740000
