40
Properties=species:S:1:pos:R:3 #=T CELL(abcABC):=T 1.889726e+02=T 90.00000=T Traj:=T positionsangstrom=T Step:=T 0=T Bead:=T pbc="F F F"
C      -46.27900000     -30.44160000     -69.06900000
C      -46.55600000     -31.26320000     -70.19220000
C      -46.41640000     -32.70420000     -70.06450000
C      -45.97600000     -33.26140000     -68.86020000
C      -45.68220000     -32.37660000     -67.70580000
C      -45.84480000     -31.04140000     -67.82890000
H      -46.41120000     -29.37880000     -69.16020000
H      -46.89660000     -33.34690000     -70.77690000
H      -45.48760000     -32.83870000     -66.75500000
H      -45.67270000     -30.49070000     -66.91600000
C      -45.56850000     -34.75010000     -68.69210000
H      -46.05630000     -35.24610000     -69.51290000
H      -45.90960000     -35.18450000     -67.72760000
C      -46.80850000     -30.69040000     -71.56480000
H      -47.16680000     -31.44730000     -72.18190000
H      -47.53260000     -29.91710000     -71.61230000
S      -43.71430000     -34.99060000     -68.60380000
S      -45.36740000     -29.81840000     -72.50610000
C      -42.98290000     -34.03530000     -69.97100000
H      -43.49250000     -33.16370000     -70.32030000
H      -42.13940000     -33.49120000     -69.62050000
C      -43.94020000     -30.89790000     -72.26310000
H      -44.09510000     -31.32240000     -71.27900000
H      -43.08290000     -30.28620000     -72.23610000
C      -43.84610000     -32.12000000     -73.26680000
H      -43.66810000     -31.74870000     -74.31850000
H      -42.91510000     -32.64630000     -72.94510000
C      -42.69600000     -34.92290000     -71.21820000
H      -42.12060000     -35.81640000     -70.97910000
H      -42.17190000     -34.31990000     -71.94500000
C      -44.04400000     -35.26550000     -71.88450000
C      -44.50680000     -36.57180000     -71.83930000
C      -44.91510000     -34.41470000     -72.69500000
H      -43.92400000     -37.40170000     -71.35310000
C      -46.10790000     -35.09270000     -73.06420000
C      -45.00680000     -33.03580000     -73.21070000
C      -46.11120000     -32.81510000     -73.96620000
S      -46.08560000     -36.80400000     -72.58800000
S      -47.22330000     -34.19350000     -74.05020000
H      -46.51460000     -31.89240000     -74.34440000
