40
Properties=species:S:1:pos:R:3 #=T CELL(abcABC):=T 1.889726e+02=T 90.00000=T Traj:=T positionsangstrom=T Step:=T 0=T Bead:=T pbc="F F F"
C      -43.99510000     -30.70610000     -74.72580000
C      -44.84290000     -31.57060000     -74.03290000
C      -44.50370000     -32.91860000     -73.79680000
C      -43.23320000     -33.40570000     -74.26070000
C      -42.41300000     -32.54400000     -75.02200000
C      -42.82910000     -31.24600000     -75.34540000
H      -44.40500000     -29.67780000     -74.83040000
H      -45.40960000     -33.52860000     -73.42850000
H      -41.44530000     -32.93310000     -75.41730000
H      -42.29540000     -30.60560000     -76.09220000
C      -42.89580000     -34.88840000     -74.26700000
H      -42.03080000     -35.15340000     -74.92160000
H      -43.75830000     -35.50000000     -74.52950000
C      -46.19620000     -31.10950000     -73.57900000
H      -46.49100000     -30.16750000     -74.11210000
H      -46.98730000     -31.85000000     -73.63510000
S      -42.38820000     -35.44490000     -72.52540000
S      -46.30160000     -30.49920000     -71.81860000
C      -43.91260000     -35.74750000     -71.56730000
H      -44.70040000     -35.37980000     -72.23330000
H      -44.07770000     -36.84010000     -71.49080000
C      -44.77230000     -31.35490000     -71.09020000
H      -43.89980000     -30.60760000     -71.26030000
H      -44.53030000     -32.17000000     -71.73330000
C      -44.91120000     -31.63550000     -69.56670000
H      -43.98590000     -32.04980000     -69.21590000
H      -45.04670000     -30.74470000     -69.03090000
C      -44.01580000     -34.99350000     -70.13000000
H      -43.77020000     -33.91090000     -70.31820000
H      -43.32390000     -35.44330000     -69.41960000
C      -45.43330000     -35.15750000     -69.62360000
C      -46.09620000     -36.34160000     -69.42590000
C      -46.21620000     -34.02580000     -69.15070000
H      -45.72650000     -37.33090000     -69.64110000
C      -47.43150000     -34.42590000     -68.66760000
C      -46.07050000     -32.56790000     -69.15850000
C      -47.26910000     -32.02310000     -68.71710000
S      -47.68430000     -36.15120000     -68.75770000
S      -48.54170000     -33.19720000     -68.29500000
H      -47.52460000     -30.94130000     -68.71890000
