40
Properties=species:S:1:pos:R:3 #=T CELL(abcABC):=T 1.889726e+02=T 90.00000=T Traj:=T positionsangstrom=T Step:=T 0=T Bead:=T pbc="F F F"
C      -46.49310000     -30.40300000     -69.42400000
C      -46.46520000     -31.42300000     -70.45370000
C      -46.33220000     -32.73660000     -69.97660000
C      -46.08880000     -32.96460000     -68.56540000
C      -46.24680000     -31.94100000     -67.62430000
C      -46.40980000     -30.63780000     -68.07830000
H      -46.65990000     -29.36410000     -69.84670000
H      -46.23610000     -33.51460000     -70.73250000
H      -46.17710000     -32.18390000     -66.59500000
H      -46.38290000     -29.80740000     -67.39940000
C      -45.63150000     -34.29810000     -68.03090000
H      -46.11010000     -35.06510000     -68.61570000
H      -45.92510000     -34.41490000     -66.99820000
C      -46.60120000     -31.17910000     -71.92630000
H      -46.77730000     -32.08450000     -72.40170000
H      -47.44600000     -30.58490000     -72.19140000
S      -43.80970000     -34.56870000     -68.11230000
S      -45.10320000     -30.25990000     -72.69390000
C      -43.39140000     -33.65120000     -69.65280000
H      -44.12930000     -32.97660000     -69.93790000
H      -42.40340000     -33.21720000     -69.47240000
C      -43.64010000     -31.36130000     -72.31540000
H      -43.76440000     -31.81040000     -71.29350000
H      -42.78600000     -30.71960000     -72.21680000
C      -43.38270000     -32.46660000     -73.36400000
H      -43.15010000     -31.88590000     -74.25780000
H      -42.46390000     -33.04960000     -73.05990000
C      -43.13720000     -34.61310000     -70.80720000
H      -42.56940000     -35.47290000     -70.51170000
H      -42.40760000     -34.16350000     -71.51750000
C      -44.40010000     -35.08370000     -71.51690000
C      -45.16230000     -36.19240000     -71.16540000
C      -44.90010000     -34.53240000     -72.77620000
H      -44.90940000     -36.81810000     -70.38410000
C      -46.06060000     -35.19320000     -73.23260000
C      -44.52080000     -33.42010000     -73.62480000
C      -45.39580000     -33.26120000     -74.64040000
S      -46.50330000     -36.58010000     -72.28810000
S      -46.60570000     -34.53240000     -74.75500000
H      -45.11420000     -32.60250000     -75.49170000
