40
Properties=species:S:1:pos:R:3 #=T CELL(abcABC):=T 1.889726e+02=T 90.00000=T Traj:=T positionsangstrom=T Step:=T 0=T Bead:=T pbc="F F F"
C      -46.27180000     -30.42100000     -69.20760000
C      -46.42840000     -31.32000000     -70.34680000
C      -46.15720000     -32.70860000     -70.22960000
C      -45.82020000     -33.24430000     -69.02830000
C      -45.89480000     -32.42640000     -67.89220000
C      -45.98380000     -30.99710000     -68.02500000
H      -46.39440000     -29.36220000     -69.42710000
H      -46.03710000     -33.23900000     -71.11580000
H      -45.64990000     -32.82940000     -66.84270000
H      -45.94590000     -30.50300000     -67.10040000
C      -45.64450000     -34.72460000     -68.87720000
H      -45.89390000     -35.26710000     -69.78580000
H      -46.25760000     -35.13970000     -68.07730000
C      -46.88160000     -30.75250000     -71.63300000
H      -47.46260000     -31.54340000     -72.18450000
H      -47.53210000     -29.88640000     -71.47260000
S      -43.86150000     -35.03960000     -68.40070000
S      -45.44830000     -29.93570000     -72.53890000
C      -42.98410000     -34.09970000     -69.78420000
H      -43.58640000     -33.19400000     -69.99920000
H      -41.98290000     -34.02760000     -69.22300000
C      -44.00930000     -31.00340000     -72.08240000
H      -44.10730000     -31.41620000     -71.04600000
H      -43.12300000     -30.25370000     -72.01020000
C      -43.66070000     -32.12150000     -73.04760000
H      -43.37880000     -31.79200000     -74.07170000
H      -42.85300000     -32.66390000     -72.75450000
C      -42.77280000     -34.80470000     -71.18100000
H      -42.06490000     -35.61690000     -71.10550000
H      -42.21550000     -34.08880000     -71.87110000
C      -44.03650000     -35.23170000     -71.85530000
C      -44.61130000     -36.44780000     -71.59260000
C      -44.86740000     -34.42040000     -72.74080000
H      -44.18430000     -37.25230000     -71.03080000
C      -46.07490000     -35.05920000     -73.10660000
C      -44.81570000     -33.06850000     -73.28400000
C      -45.93860000     -32.80270000     -74.02330000
S      -46.10700000     -36.73060000     -72.55150000
S      -47.14370000     -34.11790000     -74.05330000
H      -46.36650000     -31.86870000     -74.41980000
