40
Properties=species:S:1:pos:R:3 #=T CELL(abcABC):=T 1.889726e+02=T 90.00000=T Traj:=T positionsangstrom=T Step:=T 0=T Bead:=T pbc="F F F"
C      -46.71830000     -29.88480000     -70.09040000
C      -46.67280000     -31.04490000     -70.83500000
C      -46.19350000     -32.21410000     -70.23880000
C      -45.82510000     -32.29630000     -68.91520000
C      -45.98910000     -31.12500000     -68.10320000
C      -46.34680000     -29.92570000     -68.75490000
H      -46.88860000     -28.99380000     -70.67810000
H      -46.04950000     -33.09180000     -70.88340000
H      -45.80820000     -31.24190000     -67.01240000
H      -46.53060000     -28.97590000     -68.18690000
C      -45.40910000     -33.56350000     -68.31850000
H      -45.87740000     -34.46390000     -68.76660000
H      -45.79330000     -33.55260000     -67.34150000
C      -47.07010000     -31.05050000     -72.33620000
H      -47.43520000     -32.01410000     -72.59220000
H      -47.84400000     -30.41650000     -72.57860000
S      -43.52400000     -33.96150000     -68.22230000
S      -45.76510000     -30.48570000     -73.49400000
C      -42.84800000     -33.29720000     -69.82820000
H      -43.42860000     -32.46180000     -70.19480000
H      -41.76250000     -32.90510000     -69.64600000
C      -44.25880000     -31.48020000     -72.96080000
H      -44.32500000     -31.77640000     -71.84660000
H      -43.41100000     -30.78300000     -72.91810000
C      -43.88660000     -32.79570000     -73.72090000
H      -43.79820000     -32.56750000     -74.82330000
H      -42.92960000     -33.07240000     -73.19870000
C      -42.71380000     -34.42530000     -70.85820000
H      -42.01210000     -35.11350000     -70.43530000
H      -42.24060000     -34.06520000     -71.72900000
C      -43.99800000     -35.13280000     -71.26390000
C      -44.56500000     -36.07530000     -70.39530000
C      -44.78960000     -34.90780000     -72.46470000
H      -44.03370000     -36.36800000     -69.50720000
C      -45.85570000     -35.79790000     -72.50850000
C      -44.80850000     -34.00980000     -73.61930000
C      -45.80390000     -34.30540000     -74.47430000
S      -46.04210000     -36.75980000     -71.09750000
S      -46.85500000     -35.62120000     -73.94480000
H      -46.06020000     -33.79310000     -75.35840000
