40
Properties=species:S:1:pos:R:3 #=T CELL(abcABC):=T 1.889726e+02=T 90.00000=T Traj:=T positionsangstrom=T Step:=T 0=T Bead:=T pbc="F F F"
C      -44.06200000     -30.63100000     -74.55280000
C      -44.98910000     -31.56510000     -74.04000000
C      -44.67920000     -32.92710000     -73.97080000
C      -43.41840000     -33.38480000     -74.32290000
C      -42.43620000     -32.47420000     -74.80890000
C      -42.79540000     -31.12480000     -74.95070000
H      -44.41860000     -29.59630000     -74.59340000
H      -45.50930000     -33.60380000     -73.59050000
H      -41.45080000     -32.87060000     -75.13250000
H      -42.08390000     -30.44420000     -75.43430000
C      -43.17650000     -34.87580000     -74.20940000
H      -42.46230000     -35.15560000     -74.98250000
H      -44.11830000     -35.39180000     -74.31110000
C      -46.30790000     -31.15290000     -73.46940000
H      -46.65360000     -30.26160000     -74.01290000
H      -47.03450000     -31.93440000     -73.63810000
S      -42.35200000     -35.36790000     -72.56310000
S      -46.19170000     -30.75370000     -71.59100000
C      -43.82910000     -35.91370000     -71.55170000
H      -44.79510000     -35.98930000     -72.08210000
H      -43.66440000     -36.91760000     -71.16750000
C      -44.64980000     -31.46470000     -70.90970000
H      -43.78450000     -30.86400000     -71.06220000
H      -44.42090000     -32.46050000     -71.35820000
C      -44.79750000     -31.77150000     -69.32600000
H      -43.84430000     -32.25690000     -68.99750000
H      -44.92130000     -30.76320000     -68.77540000
C      -43.98250000     -34.97630000     -70.27990000
H      -43.76060000     -33.91620000     -70.43980000
H      -43.37490000     -35.39600000     -69.43410000
C      -45.40000000     -35.12350000     -69.76010000
C      -46.03150000     -36.32830000     -69.59000000
C      -46.18480000     -34.01220000     -69.21230000
H      -45.76980000     -37.30840000     -69.89920000
C      -47.45200000     -34.39550000     -68.81690000
C      -46.00700000     -32.59720000     -69.07200000
C      -47.19280000     -31.94030000     -68.69470000
S      -47.69690000     -36.10340000     -69.09040000
S      -48.54300000     -33.03320000     -68.45480000
H      -47.32430000     -30.83330000     -68.51060000
