40
Properties=species:S:1:pos:R:3 #=T CELL(abcABC):=T 1.889726e+02=T 90.00000=T Traj:=T positionsangstrom=T Step:=T 0=T Bead:=T pbc="F F F"
C      -46.48900000     -29.93710000     -69.82090000
C      -46.35380000     -30.82890000     -70.89460000
C      -46.27280000     -32.19480000     -70.57790000
C      -46.25400000     -32.58120000     -69.25860000
C      -46.38320000     -31.68330000     -68.22820000
C      -46.47420000     -30.33430000     -68.50220000
H      -46.57720000     -28.90640000     -70.07850000
H      -46.27550000     -33.00080000     -71.37890000
H      -46.05110000     -31.95810000     -67.15440000
H      -46.41500000     -29.60010000     -67.70010000
C      -46.23590000     -33.99550000     -68.87390000
H      -46.34010000     -34.61840000     -69.77670000
H      -47.01580000     -34.25460000     -68.23510000
C      -46.42430000     -30.43790000     -72.34990000
H      -46.95690000     -31.08390000     -73.01560000
H      -46.98130000     -29.55200000     -72.37770000
S      -44.64750000     -34.49280000     -68.00720000
S      -44.72040000     -30.13720000     -73.21960000
C      -43.33240000     -34.03140000     -69.31330000
H      -43.68750000     -33.06500000     -69.64070000
H      -42.37600000     -33.75280000     -68.87680000
C      -43.64210000     -31.39830000     -72.34470000
H      -44.17920000     -31.60350000     -71.44690000
H      -42.73190000     -30.95550000     -72.02980000
C      -43.23130000     -32.65980000     -73.13840000
H      -42.98220000     -32.45310000     -74.13320000
H      -42.35430000     -33.03270000     -72.67200000
C      -42.99870000     -35.02630000     -70.43070000
H      -42.51380000     -35.89770000     -69.92110000
H      -42.21760000     -34.63880000     -71.04050000
C      -44.16330000     -35.47590000     -71.21580000
C      -44.91590000     -36.57910000     -70.84200000
C      -44.68230000     -34.80150000     -72.37340000
H      -44.62840000     -37.23620000     -70.08270000
C      -45.84470000     -35.49610000     -72.82640000
C      -44.39980000     -33.66890000     -73.23550000
C      -45.35010000     -33.52960000     -74.22590000
S      -46.25540000     -36.89960000     -71.90780000
S      -46.69380000     -34.71650000     -74.18710000
H      -45.40870000     -32.74120000     -74.92800000
