40
Properties=species:S:1:pos:R:3 #=T CELL(abcABC):=T 1.889726e+02=T 90.00000=T Traj:=T positionsangstrom=T Step:=T 0=T Bead:=T pbc="F F F"
C      -46.16630000     -29.93010000     -69.74560000
C      -46.33850000     -31.02380000     -70.62000000
C      -46.30190000     -32.38580000     -70.20970000
C      -46.26980000     -32.64470000     -68.85660000
C      -46.19900000     -31.56000000     -67.91790000
C      -46.07950000     -30.23780000     -68.36270000
H      -46.06230000     -28.90030000     -70.14230000
H      -46.51590000     -33.13460000     -70.97240000
H      -46.07990000     -31.80550000     -66.90930000
H      -45.84470000     -29.46740000     -67.63620000
C      -46.15470000     -34.07080000     -68.38090000
H      -46.60500000     -34.62270000     -69.17790000
H      -46.79540000     -34.18880000     -67.54430000
C      -46.61730000     -30.77350000     -72.10350000
H      -46.96710000     -31.74820000     -72.44960000
H      -47.34260000     -29.98340000     -72.32240000
S      -44.47320000     -34.62360000     -67.95540000
S      -45.06880000     -30.20480000     -73.02050000
C      -43.36520000     -33.95260000     -69.26120000
H      -43.61580000     -32.94350000     -69.53480000
H      -42.41040000     -33.70920000     -68.81320000
C      -43.69610000     -31.29000000     -72.47830000
H      -43.81100000     -31.59530000     -71.44230000
H      -42.83930000     -30.70090000     -72.55730000
C      -43.33160000     -32.55130000     -73.30370000
H      -42.94490000     -32.32690000     -74.29330000
H      -42.45920000     -32.94440000     -72.81290000
C      -43.10320000     -34.84830000     -70.51410000
H      -42.53300000     -35.70860000     -70.27090000
H      -42.41310000     -34.25010000     -71.10890000
C      -44.30530000     -35.28220000     -71.30630000
C      -45.06350000     -36.32200000     -70.88910000
C      -44.79030000     -34.69560000     -72.55210000
H      -45.02250000     -36.77550000     -69.91030000
C      -45.89880000     -35.39210000     -73.08410000
C      -44.42540000     -33.59980000     -73.52390000
C      -45.21130000     -33.63870000     -74.66710000
S      -46.41840000     -36.72860000     -72.02980000
S      -46.41820000     -34.87710000     -74.60050000
H      -45.03150000     -33.05850000     -75.58830000
