40
Properties=species:S:1:pos:R:3 #=T CELL(abcABC):=T 1.889726e+02=T 90.00000=T Traj:=T positionsangstrom=T Step:=T 0=T Bead:=T pbc="F F F"
C      -46.83880000     -35.36800000     -72.03350000
C      -45.69310000     -35.97160000     -71.52890000
C      -44.44020000     -35.87850000     -72.12950000
C      -44.37850000     -35.01360000     -73.24520000
C      -45.49750000     -34.34110000     -73.75790000
C      -46.75460000     -34.57750000     -73.16570000
H      -47.77290000     -35.46430000     -71.46520000
H      -43.54620000     -36.33590000     -71.67900000
H      -45.32490000     -33.72210000     -74.61020000
H      -47.60580000     -34.04970000     -73.46120000
C      -43.07880000     -34.86210000     -73.95750000
H      -43.06100000     -34.28030000     -74.90920000
H      -42.68440000     -35.90300000     -74.11810000
C      -45.82050000     -36.77020000     -70.19750000
H      -46.69750000     -37.44180000     -70.14060000
H      -44.95920000     -37.45120000     -70.15590000
S      -41.81060000     -34.08050000     -72.80800000
S      -45.70580000     -35.80370000     -68.60210000
C      -42.50260000     -32.33510000     -72.61660000
H      -41.58800000     -31.75370000     -72.62670000
H      -43.11400000     -31.98780000     -73.46510000
C      -44.38880000     -34.52600000     -68.87090000
H      -43.94400000     -34.72570000     -69.82990000
H      -43.73750000     -34.70410000     -68.08400000
C      -44.76380000     -33.01930000     -68.67700000
H      -45.07250000     -32.93030000     -67.60310000
H      -43.85650000     -32.51950000     -68.84790000
C      -43.26700000     -31.99920000     -71.39510000
H      -42.70120000     -31.20600000     -70.85320000
H      -43.45240000     -32.87800000     -70.74720000
C      -44.63600000     -31.43010000     -71.60100000
C      -45.10980000     -30.71740000     -72.69560000
C      -45.74510000     -31.68020000     -70.69920000
H      -44.47240000     -30.45100000     -73.51150000
C      -46.98410000     -31.23330000     -71.16100000
C      -45.91730000     -32.38390000     -69.40730000
C      -47.17490000     -32.35110000     -68.90290000
S      -46.83870000     -30.52870000     -72.75680000
S      -48.27460000     -31.46860000     -70.01210000
H      -47.59950000     -32.64620000     -67.91620000
