40
Properties=species:S:1:pos:R:3 #=T CELL(abcABC):=T 1.889726e+02=T 90.00000=T Traj:=T positionsangstrom=T Step:=T 0=T Bead:=T pbc="F F F"
C      -46.27500000     -30.25900000     -69.66160000
C      -46.33490000     -31.20840000     -70.72630000
C      -46.49860000     -32.55170000     -70.31080000
C      -46.40100000     -32.95810000     -68.95180000
C      -46.09070000     -32.04080000     -67.98480000
C      -46.14530000     -30.67140000     -68.30810000
H      -46.22010000     -29.21010000     -69.98650000
H      -46.69270000     -33.30510000     -71.12960000
H      -45.98750000     -32.24980000     -66.89590000
H      -46.03690000     -29.98790000     -67.53190000
C      -46.29190000     -34.48090000     -68.62770000
H      -46.43330000     -35.07990000     -69.52560000
H      -46.99990000     -34.83630000     -67.88900000
C      -46.16240000     -30.71840000     -72.19300000
H      -46.46970000     -31.55760000     -72.81290000
H      -46.89480000     -29.97020000     -72.36160000
S      -44.56930000     -34.86520000     -68.05180000
S      -44.51100000     -30.09150000     -72.69670000
C      -43.51640000     -34.14450000     -69.37080000
H      -44.09410000     -33.29750000     -69.74980000
H      -42.60500000     -33.80670000     -68.87340000
C      -43.32020000     -31.37960000     -72.14720000
H      -43.56680000     -31.87870000     -71.24180000
H      -42.36710000     -30.80490000     -72.12180000
C      -43.10890000     -32.56730000     -73.15970000
H      -42.86470000     -32.15790000     -74.19040000
H      -42.27360000     -33.20390000     -72.82010000
C      -43.24240000     -35.15230000     -70.54510000
H      -42.90970000     -36.17820000     -70.06070000
H      -42.41630000     -34.71500000     -71.12110000
C      -44.42420000     -35.38730000     -71.42690000
C      -45.28900000     -36.37360000     -71.15400000
C      -44.82230000     -34.58970000     -72.60780000
H      -45.20910000     -37.06450000     -70.29890000
C      -45.97020000     -35.13740000     -73.18770000
C      -44.34690000     -33.43060000     -73.33170000
C      -45.14310000     -33.19290000     -74.43280000
S      -46.67390000     -36.48400000     -72.25310000
S      -46.60740000     -34.11040000     -74.46720000
H      -45.00660000     -32.28800000     -75.06320000
