40
Properties=species:S:1:pos:R:3 #=T CELL(abcABC):=T 1.889726e+02=T 90.00000=T Traj:=T positionsangstrom=T Step:=T 0=T Bead:=T pbc="F F F"
C      -44.17280000     -30.69020000     -74.28370000
C      -45.15070000     -31.63520000     -73.83790000
C      -44.80800000     -33.00030000     -73.86650000
C      -43.58120000     -33.49260000     -74.29420000
C      -42.59940000     -32.55750000     -74.69420000
C      -42.89560000     -31.15910000     -74.60590000
H      -44.44640000     -29.67220000     -74.23970000
H      -45.44610000     -33.74780000     -73.42850000
H      -41.60310000     -32.90800000     -74.94600000
H      -42.07790000     -30.49970000     -74.76950000
C      -43.20470000     -34.95280000     -74.14570000
H      -42.54330000     -35.27140000     -74.91610000
H      -44.06880000     -35.66560000     -74.24310000
C      -46.41120000     -31.09720000     -73.20780000
H      -46.71630000     -30.21030000     -73.74480000
H      -47.28320000     -31.81640000     -73.28360000
S      -42.32410000     -35.34270000     -72.62590000
S      -46.15390000     -30.63100000     -71.44510000
C      -43.69260000     -35.87300000     -71.57000000
H      -44.54970000     -35.70290000     -72.19930000
H      -43.45050000     -36.93000000     -71.35420000
C      -44.60260000     -31.52170000     -70.97110000
H      -43.83060000     -30.87600000     -71.19300000
H      -44.52070000     -32.49740000     -71.55430000
C      -44.66250000     -31.85820000     -69.45360000
H      -43.81910000     -32.42260000     -69.18400000
H      -44.67540000     -30.98630000     -68.83790000
C      -43.99200000     -35.03310000     -70.28870000
H      -43.75190000     -34.01330000     -70.60490000
H      -43.38200000     -35.24290000     -69.42760000
C      -45.42500000     -35.12210000     -69.92910000
C      -46.02480000     -36.34840000     -69.72140000
C      -46.16110000     -33.96500000     -69.48220000
H      -45.65560000     -37.36240000     -69.87500000
C      -47.44650000     -34.36140000     -69.04620000
C      -45.92170000     -32.59150000     -69.15400000
C      -47.07360000     -31.95710000     -68.69930000
S      -47.69960000     -36.03610000     -69.26450000
S      -48.45980000     -33.01670000     -68.50950000
H      -47.05310000     -30.86550000     -68.40000000
