40
Properties=species:S:1:pos:R:3 #=T CELL(abcABC):=T 1.889726e+02=T 90.00000=T Traj:=T positionsangstrom=T Step:=T 0=T Bead:=T pbc="F F F"
C      -46.64540000     -29.75610000     -70.24690000
C      -46.73490000     -30.88870000     -71.19160000
C      -46.62230000     -32.15980000     -70.61450000
C      -46.37300000     -32.34990000     -69.23350000
C      -46.30170000     -31.22300000     -68.39830000
C      -46.48660000     -29.95150000     -68.92520000
H      -46.72210000     -28.72260000     -70.60450000
H      -46.66890000     -33.01160000     -71.28350000
H      -46.10050000     -31.38950000     -67.38480000
H      -46.35360000     -29.24820000     -68.12570000
C      -46.08060000     -33.73420000     -68.67200000
H      -46.34010000     -34.52260000     -69.38620000
H      -46.79220000     -34.00970000     -67.79160000
C      -46.92790000     -30.64750000     -72.62720000
H      -47.43190000     -31.47690000     -73.18010000
H      -47.46860000     -29.66900000     -72.94940000
S      -44.29030000     -33.83760000     -68.13330000
S      -45.32000000     -30.40870000     -73.61900000
C      -43.35740000     -33.35070000     -69.65710000
H      -44.06090000     -32.87630000     -70.29970000
H      -42.63320000     -32.54360000     -69.34940000
C      -44.01460000     -31.51700000     -72.70740000
H      -44.39650000     -31.84630000     -71.76580000
H      -43.16390000     -30.86110000     -72.58550000
C      -43.50320000     -32.78320000     -73.37430000
H      -43.20300000     -32.58770000     -74.32820000
H      -42.56950000     -32.97960000     -72.83230000
C      -42.69990000     -34.51740000     -70.44930000
H      -42.10580000     -35.15300000     -69.77160000
H      -41.99100000     -33.90080000     -71.13070000
C      -43.70300000     -35.48660000     -71.13200000
C      -44.20350000     -36.62860000     -70.49270000
C      -44.47730000     -34.98650000     -72.25850000
H      -43.88160000     -36.98920000     -69.52480000
C      -45.61390000     -35.83280000     -72.48510000
C      -44.52800000     -33.90510000     -73.22470000
C      -45.62840000     -33.91990000     -74.07610000
S      -45.72810000     -37.13470000     -71.32450000
S      -46.74030000     -35.35090000     -73.66630000
H      -45.99110000     -33.28430000     -74.94290000
