40
Properties=species:S:1:pos:R:3 #=T CELL(abcABC):=T 1.889726e+02=T 90.00000=T Traj:=T positionsangstrom=T Step:=T 0=T Bead:=T pbc="F F F"
C      -46.75450000     -29.74310000     -70.22060000
C      -46.86310000     -30.84890000     -71.12820000
C      -46.64000000     -32.13830000     -70.63350000
C      -46.34700000     -32.35010000     -69.29040000
C      -46.32650000     -31.30270000     -68.37190000
C      -46.45120000     -29.99650000     -68.87120000
H      -46.90460000     -28.71440000     -70.59560000
H      -46.67180000     -33.12600000     -71.16780000
H      -46.27230000     -31.45110000     -67.31640000
H      -46.38880000     -29.14080000     -68.15910000
C      -45.96100000     -33.76930000     -68.86190000
H      -46.15870000     -34.37640000     -69.71770000
H      -46.47870000     -34.08430000     -68.02650000
C      -46.98410000     -30.72360000     -72.64020000
H      -47.58350000     -31.53550000     -73.00960000
H      -47.64440000     -29.89660000     -72.65240000
S      -44.21800000     -33.80090000     -68.25980000
S      -45.33610000     -30.55250000     -73.50130000
C      -43.23450000     -33.33150000     -69.73760000
H      -43.89550000     -32.84000000     -70.38650000
H      -42.44160000     -32.64790000     -69.44260000
C      -44.04510000     -31.33700000     -72.46540000
H      -44.50770000     -31.47540000     -71.43470000
H      -43.14320000     -30.70200000     -72.25450000
C      -43.54950000     -32.68150000     -73.09470000
H      -43.12630000     -32.65650000     -74.12830000
H      -42.71700000     -33.04200000     -72.42260000
C      -42.70940000     -34.58580000     -70.34870000
H      -42.20070000     -35.21620000     -69.66410000
H      -41.91490000     -34.38360000     -71.00560000
C      -43.90690000     -35.30440000     -70.96270000
C      -44.38020000     -36.48370000     -70.43850000
C      -44.68620000     -34.88780000     -72.14400000
H      -43.93440000     -36.96630000     -69.63830000
C      -45.63040000     -35.83630000     -72.50790000
C      -44.63920000     -33.77590000     -73.10990000
C      -45.55150000     -33.93980000     -74.11790000
S      -45.67120000     -37.21760000     -71.35160000
S      -46.58060000     -35.36740000     -73.97410000
H      -45.52390000     -33.42540000     -75.06190000
