40
Properties=species:S:1:pos:R:3 #=T CELL(abcABC):=T 1.889726e+02=T 90.00000=T Traj:=T positionsangstrom=T Step:=T 0=T Bead:=T pbc="F F F"
C      -46.80370000     -35.35290000     -71.88790000
C      -45.63990000     -35.92900000     -71.37280000
C      -44.38230000     -35.63380000     -71.97890000
C      -44.38590000     -34.99890000     -73.24820000
C      -45.63490000     -34.58160000     -73.84990000
C      -46.85590000     -34.67680000     -73.13230000
H      -47.72390000     -35.49250000     -71.31520000
H      -43.46680000     -35.99230000     -71.54680000
H      -45.54710000     -34.00220000     -74.74980000
H      -47.87470000     -34.36740000     -73.47560000
C      -43.03570000     -34.75240000     -73.90590000
H      -43.33490000     -34.08930000     -74.77090000
H      -42.79690000     -35.67670000     -74.38310000
C      -45.59870000     -36.67580000     -70.08640000
H      -46.52940000     -37.20030000     -69.99170000
H      -44.76020000     -37.41770000     -70.03090000
S      -41.73760000     -33.94580000     -72.91340000
S      -45.70010000     -35.56680000     -68.60200000
C      -42.37600000     -32.36450000     -72.78260000
H      -41.57880000     -31.61390000     -72.81560000
H      -43.06790000     -32.16990000     -73.62790000
C      -44.37830000     -34.38230000     -69.01020000
H      -44.12960000     -34.34780000     -70.08080000
H      -43.32690000     -34.66430000     -68.51560000
C      -44.89320000     -33.03320000     -68.49060000
H      -45.21910000     -33.02470000     -67.48610000
H      -44.01020000     -32.32030000     -68.44950000
C      -43.26670000     -32.02760000     -71.57260000
H      -42.81880000     -31.10500000     -71.12970000
H      -43.05700000     -32.70600000     -70.76420000
C      -44.73380000     -31.73510000     -71.75530000
C      -45.19670000     -30.95680000     -72.81900000
C      -45.78600000     -31.92790000     -70.76560000
H      -44.53800000     -30.66370000     -73.67780000
C      -46.95380000     -31.28770000     -71.10000000
C      -45.96350000     -32.51460000     -69.39060000
C      -47.19490000     -32.37580000     -68.87050000
S      -46.85380000     -30.45990000     -72.59950000
S      -48.29550000     -31.65620000     -70.04700000
H      -47.71380000     -32.72290000     -68.03200000
