40
Properties=species:S:1:pos:R:3 #=T CELL(abcABC):=T 1.889726e+02=T 90.00000=T Traj:=T positionsangstrom=T Step:=T 0=T Bead:=T pbc="F F F"
C      -46.37730000     -30.36050000     -69.34460000
C      -46.21850000     -31.15290000     -70.44960000
C      -46.22200000     -32.52860000     -70.16120000
C      -46.35320000     -33.09030000     -68.86130000
C      -46.45530000     -32.25540000     -67.74080000
C      -46.41310000     -30.87230000     -68.02560000
H      -46.55290000     -29.30300000     -69.43860000
H      -46.10400000     -33.17120000     -70.98560000
H      -46.48940000     -32.73830000     -66.74470000
H      -46.61510000     -30.21260000     -67.20320000
C      -46.38030000     -34.60450000     -68.77320000
H      -46.88130000     -34.96290000     -69.65880000
H      -47.03240000     -35.01520000     -68.04330000
C      -46.12270000     -30.70120000     -71.86580000
H      -46.39700000     -31.46670000     -72.55800000
H      -46.72280000     -29.82910000     -72.01100000
S      -44.72710000     -35.47330000     -68.42730000
S      -44.42870000     -30.14120000     -72.33400000
C      -43.39140000     -34.68850000     -69.39990000
H      -43.63360000     -33.58840000     -69.58130000
H      -42.41420000     -34.73320000     -68.83650000
C      -43.30630000     -31.49190000     -71.79070000
H      -43.74850000     -32.14300000     -70.89240000
H      -42.40090000     -31.10050000     -71.38290000
C      -42.92610000     -32.57960000     -72.92370000
H      -42.46780000     -32.10170000     -73.84010000
H      -42.16740000     -33.33140000     -72.53530000
C      -43.17480000     -35.25140000     -70.82710000
H      -42.77280000     -36.25270000     -70.75260000
H      -42.35560000     -34.62400000     -71.30640000
C      -44.43020000     -35.32310000     -71.64940000
C      -45.29540000     -36.38390000     -71.60250000
C      -44.82240000     -34.39540000     -72.71100000
H      -45.37170000     -37.09450000     -70.77370000
C      -46.03440000     -34.76670000     -73.25440000
C      -44.24900000     -33.23330000     -73.34800000
C      -44.99050000     -32.79030000     -74.41380000
S      -46.72920000     -36.16200000     -72.59100000
S      -46.56030000     -33.63060000     -74.55490000
H      -44.88630000     -31.81210000     -74.92180000
