40
Properties=species:S:1:pos:R:3 #=T CELL(abcABC):=T 1.889726e+02=T 90.00000=T Traj:=T positionsangstrom=T Step:=T 0=T Bead:=T pbc="F F F"
C      -45.93320000     -30.03990000     -69.55510000
C      -46.19430000     -31.02630000     -70.49490000
C      -46.34740000     -32.40310000     -70.05800000
C      -46.26340000     -32.71430000     -68.71570000
C      -46.22300000     -31.66740000     -67.77340000
C      -46.01060000     -30.34730000     -68.16370000
H      -45.78330000     -29.00470000     -69.84520000
H      -46.50410000     -33.18450000     -70.83170000
H      -46.47210000     -31.82620000     -66.69200000
H      -45.91130000     -29.56460000     -67.41020000
C      -46.32020000     -34.17350000     -68.32940000
H      -46.97840000     -34.63300000     -69.00540000
H      -46.68420000     -34.32460000     -67.34020000
C      -46.16720000     -30.65220000     -71.93200000
H      -46.60100000     -31.48200000     -72.49930000
H      -46.66900000     -29.75610000     -72.12180000
S      -44.68550000     -35.04410000     -68.17410000
S      -44.46720000     -30.14700000     -72.63020000
C      -43.51460000     -34.57480000     -69.54250000
H      -43.68750000     -33.52280000     -69.90250000
H      -42.52820000     -34.44670000     -69.10610000
C      -43.49570000     -31.41710000     -71.77490000
H      -43.93480000     -31.76510000     -70.79130000
H      -42.52850000     -30.91060000     -71.41180000
C      -43.24400000     -32.62070000     -72.62880000
H      -42.73450000     -32.26770000     -73.57010000
H      -42.48700000     -33.20770000     -72.10380000
C      -43.37090000     -35.56700000     -70.68990000
H      -43.27200000     -36.52950000     -70.15710000
H      -42.51330000     -35.30700000     -71.27780000
C      -44.57750000     -35.58880000     -71.58030000
C      -45.34530000     -36.71360000     -71.57690000
C      -44.96280000     -34.62590000     -72.57350000
H      -45.11010000     -37.62030000     -71.02700000
C      -46.10320000     -35.06800000     -73.31950000
C      -44.42670000     -33.40260000     -73.13920000
C      -45.05990000     -32.97450000     -74.28980000
S      -46.70030000     -36.65690000     -72.79010000
S      -46.43580000     -33.96040000     -74.74230000
H      -44.86360000     -32.00150000     -74.69100000
