40
Properties=species:S:1:pos:R:3 #=T CELL(abcABC):=T 1.889726e+02=T 90.00000=T Traj:=T positionsangstrom=T Step:=T 0=T Bead:=T pbc="F F F"
C      -45.98340000     -30.09250000     -69.45180000
C      -46.18820000     -31.07280000     -70.45720000
C      -46.38210000     -32.43250000     -70.15250000
C      -46.25520000     -32.83080000     -68.81250000
C      -46.06950000     -31.89280000     -67.83000000
C      -45.87520000     -30.54480000     -68.15080000
H      -45.63990000     -29.08820000     -69.68000000
H      -46.45120000     -33.17440000     -70.96240000
H      -46.04680000     -32.07740000     -66.69390000
H      -45.75110000     -29.91300000     -67.31090000
C      -46.35980000     -34.31580000     -68.51710000
H      -46.77030000     -34.86170000     -69.43290000
H      -46.90300000     -34.51450000     -67.58990000
C      -46.13470000     -30.62540000     -71.89790000
H      -46.54120000     -31.38140000     -72.58800000
H      -46.86300000     -29.79230000     -72.17730000
S      -44.68820000     -34.89210000     -68.13500000
S      -44.46350000     -30.14640000     -72.51670000
C      -43.74030000     -34.34670000     -69.57100000
H      -44.36870000     -33.58580000     -70.04740000
H      -42.82500000     -33.89550000     -69.17940000
C      -43.31320000     -31.41910000     -71.78000000
H      -43.73220000     -31.61590000     -70.79570000
H      -42.39970000     -30.93780000     -71.68910000
C      -43.07920000     -32.69400000     -72.67200000
H      -42.51630000     -32.35930000     -73.50160000
H      -42.39120000     -33.30290000     -72.05870000
C      -43.44880000     -35.50910000     -70.58150000
H      -43.24810000     -36.48560000     -70.12200000
H      -42.39860000     -35.29270000     -71.05490000
C      -44.60280000     -35.61250000     -71.58510000
C      -45.46610000     -36.64560000     -71.62720000
C      -44.91440000     -34.71080000     -72.72190000
H      -45.57930000     -37.35960000     -70.86740000
C      -46.03780000     -35.08370000     -73.44140000
C      -44.37900000     -33.42550000     -73.17180000
C      -45.11770000     -32.93350000     -74.25660000
S      -46.72060000     -36.60560000     -72.83700000
S      -46.49330000     -33.92840000     -74.62460000
H      -44.92890000     -31.93840000     -74.69250000
