40
Properties=species:S:1:pos:R:3 #=T CELL(abcABC):=T 1.889726e+02=T 90.00000=T Traj:=T positionsangstrom=T Step:=T 0=T Bead:=T pbc="F F F"
C      -46.23560000     -30.39320000     -69.28370000
C      -46.16130000     -31.27460000     -70.36370000
C      -46.18400000     -32.61420000     -70.15950000
C      -46.38970000     -33.13370000     -68.85180000
C      -46.50140000     -32.28430000     -67.75490000
C      -46.43360000     -30.90550000     -67.94840000
H      -46.18010000     -29.34200000     -69.41330000
H      -46.17170000     -33.33400000     -70.98590000
H      -46.73520000     -32.74910000     -66.82700000
H      -46.36590000     -30.25250000     -67.04430000
C      -46.40860000     -34.62050000     -68.59480000
H      -46.98590000     -35.06240000     -69.42160000
H      -46.79640000     -34.80800000     -67.56880000
C      -46.13660000     -30.69550000     -71.77550000
H      -46.42170000     -31.36740000     -72.59870000
H      -46.81250000     -29.74590000     -71.77910000
S      -44.72380000     -35.54510000     -68.46200000
S      -44.34020000     -30.28680000     -72.26210000
C      -43.53610000     -34.56670000     -69.51370000
H      -44.05440000     -33.65940000     -69.57250000
H      -42.71430000     -34.44170000     -68.84040000
C      -43.24080000     -31.69970000     -71.77230000
H      -43.84430000     -32.22280000     -71.00620000
H      -42.42510000     -31.17710000     -71.32790000
C      -42.97270000     -32.50800000     -73.07060000
H      -42.65920000     -31.81360000     -73.78870000
H      -42.16360000     -33.27270000     -72.91790000
C      -43.20030000     -35.05530000     -70.85140000
H      -42.64890000     -35.99790000     -70.83890000
H      -42.48510000     -34.38230000     -71.30900000
C      -44.40220000     -35.26380000     -71.74660000
C      -45.31970000     -36.24740000     -71.54540000
C      -44.74420000     -34.39550000     -72.84350000
H      -45.16270000     -37.13320000     -70.85170000
C      -46.03290000     -34.72790000     -73.31780000
C      -44.23840000     -33.19510000     -73.48510000
C      -45.09810000     -32.63550000     -74.39850000
S      -46.72080000     -36.09630000     -72.59510000
S      -46.61570000     -33.60590000     -74.55330000
H      -44.94170000     -31.69710000     -74.87970000
