40
Properties=species:S:1:pos:R:3 #=T CELL(abcABC):=T 1.889726e+02=T 90.00000=T Traj:=T positionsangstrom=T Step:=T 0=T Bead:=T pbc="F F F"
C      -44.27730000     -30.72610000     -74.12490000
C      -45.18640000     -31.72460000     -73.72440000
C      -44.83700000     -33.08670000     -73.75830000
C      -43.59090000     -33.49110000     -74.26090000
C      -42.68790000     -32.50500000     -74.64990000
C      -42.99150000     -31.14290000     -74.54440000
H      -44.48940000     -29.64670000     -74.05090000
H      -45.46870000     -33.87350000     -73.50240000
H      -41.77330000     -32.87970000     -74.96930000
H      -42.20930000     -30.46690000     -74.78200000
C      -43.19160000     -34.93870000     -74.29110000
H      -42.47680000     -35.11070000     -75.07080000
H      -44.08840000     -35.52280000     -74.45860000
C      -46.49300000     -31.24550000     -73.02400000
H      -47.17020000     -30.55170000     -73.58700000
H      -47.04490000     -32.11170000     -72.71450000
S      -42.34740000     -35.49760000     -72.68280000
S      -46.04650000     -30.32420000     -71.49050000
C      -43.70400000     -36.06580000     -71.50480000
H      -44.63090000     -36.38690000     -71.96620000
H      -43.25750000     -37.01340000     -71.09170000
C      -44.59440000     -31.24990000     -70.83630000
H      -43.69890000     -30.56940000     -70.95900000
H      -44.29120000     -32.11240000     -71.47230000
C      -44.65240000     -31.72730000     -69.40080000
H      -43.63670000     -32.25780000     -69.21670000
H      -44.64070000     -30.86280000     -68.72980000
C      -43.98130000     -35.08170000     -70.36680000
H      -43.68820000     -34.05030000     -70.68110000
H      -43.30130000     -35.31890000     -69.52340000
C      -45.43380000     -35.19060000     -69.94850000
C      -46.17180000     -36.35170000     -70.03600000
C      -46.05210000     -34.05830000     -69.33090000
H      -46.01980000     -37.42050000     -70.33510000
C      -47.36870000     -34.39020000     -69.00120000
C      -45.82390000     -32.61850000     -69.07190000
C      -47.02070000     -32.02270000     -68.62430000
S      -47.77130000     -35.97790000     -69.45830000
S      -48.38240000     -33.06380000     -68.51480000
H      -47.06610000     -30.94690000     -68.46660000
