40
Properties=species:S:1:pos:R:3 #=T CELL(abcABC):=T 1.889726e+02=T 90.00000=T Traj:=T positionsangstrom=T Step:=T 0=T Bead:=T pbc="F F F"
C      -48.74680000     -33.95780000     -70.93730000
C      -48.62430000     -33.87880000     -72.38240000
C      -48.21920000     -32.67290000     -72.99090000
C      -47.86300000     -31.57800000     -72.21370000
C      -47.88250000     -31.68000000     -70.80570000
C      -48.34130000     -32.84800000     -70.21810000
H      -49.17780000     -34.91340000     -70.56830000
H      -48.07230000     -32.61540000     -74.06580000
H      -47.59910000     -30.79870000     -70.22770000
H      -48.46130000     -32.90470000     -69.11300000
C      -47.41980000     -30.22760000     -72.82250000
H      -47.62630000     -29.26210000     -72.23490000
H      -47.81080000     -30.04910000     -73.82010000
C      -48.84250000     -35.11500000     -73.25370000
H      -49.53300000     -35.87280000     -72.94250000
H      -49.16040000     -34.70270000     -74.26110000
S      -45.61180000     -30.30870000     -73.14420000
S      -47.11040000     -35.93570000     -73.66660000
C      -44.67050000     -30.93820000     -71.70570000
H      -44.23530000     -30.18220000     -71.03900000
H      -45.35920000     -31.44680000     -71.14290000
C      -46.20790000     -35.83550000     -72.05640000
H      -45.62020000     -36.77730000     -72.08790000
H      -46.84270000     -35.93100000     -71.17020000
C      -45.37080000     -34.60000000     -71.78980000
H      -44.84180000     -34.53060000     -72.73610000
H      -45.94760000     -33.71140000     -71.73400000
C      -43.49950000     -31.82040000     -72.19930000
H      -42.80680000     -31.13560000     -72.66030000
H      -43.83830000     -32.54960000     -72.96160000
C      -42.85540000     -32.54570000     -71.01720000
C      -41.69950000     -32.08300000     -70.45600000
C      -43.42760000     -33.77170000     -70.37830000
H      -41.08130000     -31.23340000     -70.81290000
C      -42.55540000     -34.07830000     -69.28120000
C      -44.45490000     -34.77370000     -70.65850000
C      -44.38570000     -35.81870000     -69.74750000
S      -41.27070000     -32.89980000     -68.96320000
S      -43.11130000     -35.55080000     -68.53920000
H      -45.07040000     -36.62820000     -69.61980000
