40
Properties=species:S:1:pos:R:3 #=T CELL(abcABC):=T 1.889726e+02=T 90.00000=T Traj:=T positionsangstrom=T Step:=T 0=T Bead:=T pbc="F F F"
C      -45.51720000     -36.35860000     -71.14590000
C      -44.22480000     -35.81820000     -70.92410000
C      -43.71170000     -34.95220000     -71.90220000
C      -44.42580000     -34.66930000     -73.12150000
C      -45.73690000     -35.15260000     -73.30310000
C      -46.26360000     -35.99870000     -72.35200000
H      -46.18870000     -36.86240000     -70.40890000
H      -42.67950000     -34.55520000     -71.63000000
H      -46.17900000     -34.83830000     -74.26950000
H      -47.28310000     -36.31200000     -72.44260000
C      -43.68140000     -33.90100000     -74.25470000
H      -44.48220000     -33.47310000     -74.88190000
H      -43.14590000     -34.64660000     -74.79990000
C      -43.45450000     -35.89360000     -69.60630000
H      -43.89150000     -36.73840000     -69.10890000
H      -42.39730000     -35.91600000     -69.76070000
S      -42.53400000     -32.53420000     -73.72140000
S      -43.99320000     -34.53030000     -68.40000000
C      -43.58450000     -31.02950000     -73.36880000
H      -42.85060000     -30.17510000     -73.33750000
H      -44.27630000     -30.91780000     -74.22680000
C      -43.54470000     -32.90640000     -69.22760000
H      -43.55280000     -33.02390000     -70.24370000
H      -42.53750000     -32.76740000     -68.96640000
C      -44.61740000     -31.85240000     -68.87770000
H      -44.79350000     -31.92220000     -67.78050000
H      -44.11650000     -30.84470000     -69.02420000
C      -44.39420000     -31.00710000     -72.03360000
H      -44.40750000     -29.90920000     -71.68380000
H      -43.78680000     -31.36130000     -71.12630000
C      -45.69150000     -31.69880000     -72.02570000
C      -46.49510000     -31.93600000     -73.13930000
C      -46.29940000     -32.16920000     -70.82600000
H      -46.18980000     -31.80970000     -74.16810000
C      -47.56260000     -32.74510000     -71.04580000
C      -45.95530000     -32.12320000     -69.44080000
C      -47.02670000     -32.58270000     -68.66490000
S      -48.02170000     -32.72680000     -72.74110000
S      -48.42890000     -33.08580000     -69.56530000
H      -46.94060000     -32.52790000     -67.57390000
