40
Properties=species:S:1:pos:R:3 #=T CELL(abcABC):=T 1.889726e+02=T 90.00000=T Traj:=T positionsangstrom=T Step:=T 0=T Bead:=T pbc="F F F"
C      -46.10440000     -30.50960000     -69.12450000
C      -46.15160000     -31.30470000     -70.28410000
C      -46.24660000     -32.70230000     -70.06390000
C      -46.25080000     -33.23460000     -68.78240000
C      -46.44300000     -32.42750000     -67.65960000
C      -46.16740000     -31.03680000     -67.85980000
H      -45.77370000     -29.47260000     -69.38540000
H      -46.27580000     -33.41930000     -70.86760000
H      -46.51930000     -32.95200000     -66.70020000
H      -46.27920000     -30.34060000     -67.08410000
C      -46.22180000     -34.74680000     -68.67490000
H      -46.61600000     -35.26760000     -69.55620000
H      -46.82210000     -35.03870000     -67.83620000
C      -46.05120000     -30.66690000     -71.63380000
H      -46.32890000     -31.42800000     -72.40800000
H      -46.61970000     -29.79020000     -71.79020000
S      -44.47980000     -35.37950000     -68.32840000
S      -44.40650000     -29.94830000     -71.93930000
C      -43.39920000     -34.54250000     -69.51990000
H      -43.63800000     -33.47910000     -69.51700000
H      -42.41320000     -34.62890000     -69.06700000
C      -43.29930000     -31.44540000     -71.82390000
H      -43.50570000     -31.87490000     -70.85660000
H      -42.25530000     -31.02080000     -71.78190000
C      -43.24910000     -32.37040000     -73.00100000
H      -42.90920000     -31.70230000     -73.85510000
H      -42.40240000     -33.03150000     -72.77660000
C      -43.37800000     -35.25370000     -70.91780000
H      -42.94650000     -36.25970000     -70.83470000
H      -42.62960000     -34.70180000     -71.46380000
C      -44.60800000     -35.33660000     -71.77170000
C      -45.44900000     -36.42780000     -71.80070000
C      -44.99920000     -34.36360000     -72.76890000
H      -45.43600000     -37.18580000     -71.07840000
C      -46.13820000     -34.76160000     -73.46130000
C      -44.48060000     -33.08220000     -73.34100000
C      -45.20900000     -32.66300000     -74.40520000
S      -46.80300000     -36.22820000     -72.87240000
S      -46.52100000     -33.70300000     -74.84970000
H      -44.97250000     -31.75520000     -74.94260000
