40
Properties=species:S:1:pos:R:3 #=T CELL(abcABC):=T 1.889726e+02=T 90.00000=T Traj:=T positionsangstrom=T Step:=T 0=T Bead:=T pbc="F F F"
C      -48.71120000     -33.92040000     -71.02860000
C      -48.38100000     -33.81820000     -72.38140000
C      -48.01030000     -32.62460000     -72.92610000
C      -48.00970000     -31.46510000     -72.04610000
C      -48.51690000     -31.52830000     -70.78780000
C      -48.88440000     -32.79030000     -70.27740000
H      -49.11860000     -34.82320000     -70.60640000
H      -47.75370000     -32.61600000     -74.00250000
H      -48.53610000     -30.60580000     -70.23630000
H      -49.27120000     -32.76760000     -69.26700000
C      -47.42230000     -30.20100000     -72.66490000
H      -47.56930000     -29.35700000     -71.91780000
H      -47.83150000     -29.97430000     -73.60720000
C      -48.52320000     -35.05730000     -73.23890000
H      -49.13660000     -35.82720000     -72.80960000
H      -48.89510000     -34.86230000     -74.24190000
S      -45.62220000     -30.38240000     -73.13760000
S      -46.81650000     -35.67600000     -73.91840000
C      -44.95890000     -31.24010000     -71.63720000
H      -45.10140000     -30.60240000     -70.70650000
H      -45.57040000     -32.11300000     -71.46830000
C      -45.74360000     -35.98080000     -72.46860000
H      -45.23600000     -36.93670000     -72.75370000
H      -46.32970000     -36.30060000     -71.63560000
C      -44.80500000     -34.67180000     -72.25950000
H      -44.36430000     -34.48430000     -73.26620000
H      -45.40390000     -33.82300000     -71.98280000
C      -43.50790000     -31.67660000     -71.88400000
H      -42.83710000     -30.86420000     -72.06570000
H      -43.48330000     -32.20950000     -72.87550000
C      -42.96030000     -32.43050000     -70.68330000
C      -42.19700000     -31.77620000     -69.78270000
C      -43.24960000     -33.79010000     -70.39950000
H      -41.92190000     -30.70970000     -69.89240000
C      -42.78530000     -34.15720000     -69.12210000
C      -43.96140000     -34.85690000     -71.03070000
C      -43.98290000     -35.97090000     -70.22770000
S      -41.79590000     -32.86120000     -68.46010000
S      -43.05140000     -35.85820000     -68.79980000
H      -44.37300000     -36.90920000     -70.58790000
