40
Properties=species:S:1:pos:R:3 #=T CELL(abcABC):=T 1.889726e+02=T 90.00000=T Traj:=T positionsangstrom=T Step:=T 0=T Bead:=T pbc="F F F"
C      -48.89380000     -33.96350000     -71.06380000
C      -48.46580000     -33.92080000     -72.41430000
C      -47.97170000     -32.67550000     -72.93200000
C      -47.85760000     -31.54500000     -72.12050000
C      -48.26700000     -31.63730000     -70.77150000
C      -48.70890000     -32.86430000     -70.20220000
H      -49.13630000     -34.94060000     -70.62450000
H      -47.63420000     -32.56700000     -73.96020000
H      -48.12850000     -30.78050000     -70.07690000
H      -49.23750000     -32.94660000     -69.29190000
C      -47.45190000     -30.23360000     -72.66850000
H      -47.67400000     -29.38150000     -71.99430000
H      -48.06580000     -29.98780000     -73.56020000
C      -48.52100000     -35.14660000     -73.32510000
H      -49.14600000     -35.87450000     -72.77420000
H      -49.11870000     -34.91490000     -74.24900000
S      -45.70330000     -30.28640000     -73.23970000
S      -46.96960000     -35.88400000     -73.86950000
C      -44.84490000     -30.88910000     -71.67330000
H      -44.49480000     -30.04980000     -71.09750000
H      -45.48020000     -31.53400000     -71.03470000
C      -46.05240000     -35.79580000     -72.23370000
H      -45.55890000     -36.77680000     -72.07240000
H      -46.73570000     -35.57330000     -71.42810000
C      -44.88160000     -34.71670000     -72.22490000
H      -44.12470000     -34.80640000     -73.05270000
H      -45.25880000     -33.70860000     -72.32810000
C      -43.50070000     -31.60400000     -71.93210000
H      -42.84950000     -30.72390000     -72.19520000
H      -43.53400000     -32.34800000     -72.73470000
C      -42.96160000     -32.39670000     -70.69620000
C      -42.04130000     -31.86770000     -69.88180000
C      -43.34900000     -33.75070000     -70.34380000
H      -41.62530000     -30.89200000     -69.81230000
C      -42.67310000     -34.11190000     -69.19250000
C      -44.09440000     -34.85150000     -70.91810000
C      -44.08910000     -35.92750000     -70.09050000
S      -41.59760000     -32.91810000     -68.57870000
S      -43.02200000     -35.74520000     -68.73000000
H      -44.54440000     -36.89480000     -70.31210000
