40
Properties=species:S:1:pos:R:3 #=T CELL(abcABC):=T 1.889726e+02=T 90.00000=T Traj:=T positionsangstrom=T Step:=T 0=T Bead:=T pbc="F F F"
C      -46.20510000     -30.49890000     -68.94650000
C      -46.21720000     -31.16870000     -70.13910000
C      -46.24990000     -32.60320000     -70.09480000
C      -46.15540000     -33.26960000     -68.85760000
C      -46.06310000     -32.52980000     -67.65990000
C      -46.04240000     -31.13730000     -67.68260000
H      -46.23120000     -29.44560000     -68.91090000
H      -46.32210000     -33.12110000     -71.00730000
H      -46.09700000     -33.10880000     -66.73200000
H      -45.90540000     -30.51120000     -66.80550000
C      -46.07180000     -34.77720000     -68.76560000
H      -46.34530000     -35.30290000     -69.67760000
H      -46.68940000     -34.98990000     -67.86420000
C      -46.18340000     -30.47350000     -71.43640000
H      -46.75310000     -31.14750000     -72.16450000
H      -46.62940000     -29.44930000     -71.46660000
S      -44.41810000     -35.34500000     -68.31660000
S      -44.37760000     -30.01220000     -71.91270000
C      -43.47370000     -34.56630000     -69.70220000
H      -43.85160000     -33.52990000     -69.87770000
H      -42.45190000     -34.52940000     -69.35220000
C      -43.40730000     -31.46100000     -71.56790000
H      -43.94020000     -32.02440000     -70.79870000
H      -42.41500000     -31.26820000     -71.27050000
C      -43.23210000     -32.38550000     -72.84610000
H      -42.89840000     -31.79580000     -73.69520000
H      -42.40030000     -33.05310000     -72.61120000
C      -43.41460000     -35.43190000     -70.95930000
H      -43.10670000     -36.42940000     -70.65110000
H      -42.59520000     -35.02050000     -71.59490000
C      -44.62880000     -35.34590000     -71.85420000
C      -45.55830000     -36.35910000     -71.77820000
C      -44.91770000     -34.44520000     -73.00220000
H      -45.66710000     -37.08860000     -71.06110000
C      -46.00860000     -34.82620000     -73.66640000
C      -44.52150000     -33.10470000     -73.37720000
C      -45.25430000     -32.62180000     -74.46250000
S      -46.80860000     -36.21060000     -73.04910000
S      -46.66220000     -33.63780000     -74.78910000
H      -45.12820000     -31.68550000     -74.92840000
