40
Properties=species:S:1:pos:R:3 #=T CELL(abcABC):=T 1.889726e+02=T 90.00000=T Traj:=T positionsangstrom=T Step:=T 0=T Bead:=T pbc="F F F"
C      -44.31480000     -30.83040000     -74.08730000
C      -45.18290000     -31.76830000     -73.55010000
C      -44.82330000     -33.14060000     -73.58580000
C      -43.61090000     -33.55120000     -74.17530000
C      -42.70550000     -32.57110000     -74.57770000
C      -43.09040000     -31.19900000     -74.65030000
H      -44.58190000     -29.72730000     -74.15190000
H      -45.39220000     -33.92300000     -73.03440000
H      -41.77510000     -32.89980000     -74.96750000
H      -42.54910000     -30.41490000     -75.21360000
C      -43.19080000     -34.99110000     -74.28260000
H      -42.47790000     -35.13150000     -75.15710000
H      -44.10150000     -35.56680000     -74.45480000
C      -46.42230000     -31.46280000     -72.71530000
H      -47.26860000     -31.02250000     -73.28210000
H      -46.81860000     -32.38670000     -72.24890000
S      -42.16990000     -35.63480000     -72.75010000
S      -45.93560000     -30.25070000     -71.39110000
C      -43.61750000     -36.00730000     -71.64390000
H      -44.43570000     -36.30250000     -72.36180000
H      -43.38150000     -36.87040000     -71.13200000
C      -44.44870000     -31.06260000     -70.67660000
H      -43.64520000     -30.28400000     -70.51030000
H      -44.13350000     -31.71620000     -71.35160000
C      -44.68320000     -31.74450000     -69.38600000
H      -43.86360000     -32.47950000     -69.19650000
H      -44.59240000     -31.03440000     -68.57250000
C      -44.07830000     -34.94070000     -70.71270000
H      -44.08960000     -33.96570000     -71.17770000
H      -43.41460000     -34.79780000     -69.80890000
C      -45.51620000     -35.06500000     -70.17510000
C      -46.17320000     -36.21850000     -70.14450000
C      -46.25120000     -33.94550000     -69.54540000
H      -45.85250000     -37.17910000     -70.51340000
C      -47.51430000     -34.32530000     -69.15100000
C      -45.96070000     -32.53900000     -69.19720000
C      -47.10780000     -31.96820000     -68.64730000
S      -47.73960000     -36.00280000     -69.49340000
S      -48.44710000     -33.09640000     -68.36250000
H      -47.16330000     -30.95230000     -68.37440000
