40
Properties=species:S:1:pos:R:3 #=T CELL(abcABC):=T 1.889726e+02=T 90.00000=T Traj:=T positionsangstrom=T Step:=T 0=T Bead:=T pbc="F F F"
C      -48.48320000     -34.03040000     -70.92870000
C      -48.53170000     -33.86980000     -72.30230000
C      -48.10870000     -32.62740000     -72.89630000
C      -47.84140000     -31.51930000     -72.07960000
C      -47.88480000     -31.65590000     -70.68120000
C      -48.28210000     -32.86980000     -70.12550000
H      -48.54970000     -35.06970000     -70.48560000
H      -48.30830000     -32.49260000     -73.92130000
H      -47.47800000     -30.77000000     -70.06360000
H      -48.42680000     -33.00640000     -69.08940000
C      -47.34950000     -30.22080000     -72.67390000
H      -47.39800000     -29.48820000     -71.93410000
H      -47.90280000     -29.88820000     -73.56520000
C      -48.74620000     -35.07510000     -73.13480000
H      -49.23410000     -35.84900000     -72.58550000
H      -49.31420000     -34.79760000     -74.03640000
S      -45.60020000     -30.30310000     -73.31170000
S      -47.15990000     -35.86150000     -73.56560000
C      -44.75080000     -31.13310000     -71.88210000
H      -44.46060000     -30.40600000     -71.11780000
H      -45.54920000     -31.84890000     -71.44460000
C      -46.25950000     -35.86660000     -72.01680000
H      -45.58550000     -36.75440000     -72.09300000
H      -46.93080000     -36.11700000     -71.25160000
C      -45.43750000     -34.67360000     -71.83430000
H      -44.70650000     -34.45740000     -72.62390000
H      -46.08640000     -33.72470000     -71.78730000
C      -43.50720000     -31.90070000     -72.34180000
H      -42.73830000     -31.18300000     -72.79600000
H      -43.65740000     -32.68780000     -73.07430000
C      -42.89530000     -32.51340000     -71.05350000
C      -41.71360000     -32.07220000     -70.49370000
C      -43.40730000     -33.71750000     -70.43690000
H      -41.12480000     -31.19690000     -70.69210000
C      -42.61110000     -34.10280000     -69.35690000
C      -44.52070000     -34.64480000     -70.63010000
C      -44.66650000     -35.53770000     -69.58400000
S      -41.10500000     -33.17860000     -69.20740000
S      -43.27300000     -35.39670000     -68.43860000
H      -45.38550000     -36.36480000     -69.45620000
