40
Properties=species:S:1:pos:R:3 #=T CELL(abcABC):=T 1.889726e+02=T 90.00000=T Traj:=T positionsangstrom=T Step:=T 0=T Bead:=T pbc="F F F"
C      -44.72480000     -35.78650000     -70.83440000
C      -43.54170000     -35.11100000     -70.99710000
C      -43.16670000     -34.55730000     -72.19340000
C      -44.04580000     -34.68490000     -73.33010000
C      -45.18440000     -35.45680000     -73.21140000
C      -45.55760000     -36.00520000     -71.96810000
H      -44.98810000     -36.21540000     -69.87130000
H      -42.18950000     -34.26170000     -72.30620000
H      -45.72820000     -35.66960000     -74.13190000
H      -46.49960000     -36.51350000     -71.74960000
C      -43.64600000     -33.95430000     -74.55380000
H      -44.38640000     -33.91860000     -75.34120000
H      -42.71870000     -34.38240000     -74.96410000
C      -42.54880000     -34.96030000     -69.86030000
H      -42.59610000     -35.87930000     -69.27840000
H      -41.54540000     -34.86740000     -70.17370000
S      -43.19130000     -32.20890000     -74.33760000
S      -43.03120000     -33.64440000     -68.62350000
C      -44.79550000     -31.33880000     -74.11300000
H      -44.53000000     -30.29490000     -74.29770000
H      -45.61870000     -31.71120000     -74.74650000
C      -43.45850000     -32.21470000     -69.61600000
H      -43.59910000     -32.59210000     -70.62990000
H      -42.63030000     -31.54310000     -69.67340000
C      -44.72330000     -31.42720000     -69.17380000
H      -44.64480000     -31.25750000     -68.07620000
H      -44.82470000     -30.45700000     -69.62740000
C      -45.30160000     -31.27200000     -72.59590000
H      -45.71320000     -30.23190000     -72.56270000
H      -44.44430000     -31.32620000     -71.96660000
C      -46.41340000     -32.22690000     -72.14410000
C      -47.48430000     -32.69140000     -72.91440000
C      -46.68310000     -32.50290000     -70.71280000
H      -47.63390000     -32.66420000     -73.99180000
C      -47.79310000     -33.29580000     -70.50390000
C      -46.00890000     -32.27560000     -69.45060000
C      -46.73670000     -32.73450000     -68.38420000
S      -48.72590000     -33.54770000     -72.01850000
S      -48.14060000     -33.65530000     -68.79430000
H      -46.31250000     -32.67290000     -67.38620000
