40
Properties=species:S:1:pos:R:3 #=T CELL(abcABC):=T 1.889726e+02=T 90.00000=T Traj:=T positionsangstrom=T Step:=T 0=T Bead:=T pbc="F F F"
C      -44.70600000     -35.84690000     -70.99350000
C      -43.55140000     -35.10010000     -71.02410000
C      -43.12920000     -34.53070000     -72.27660000
C      -44.00990000     -34.63540000     -73.36510000
C      -45.19480000     -35.39760000     -73.30750000
C      -45.60140000     -35.96280000     -72.06110000
H      -45.05520000     -36.25190000     -70.05600000
H      -42.33110000     -33.79360000     -72.28780000
H      -45.73950000     -35.45440000     -74.16940000
H      -46.36870000     -36.71650000     -71.98550000
C      -43.68530000     -33.86910000     -74.64310000
H      -44.27620000     -34.08420000     -75.57620000
H      -42.65940000     -34.13530000     -74.90820000
C      -42.72850000     -34.98520000     -69.80880000
H      -42.76950000     -35.88810000     -69.07340000
H      -41.71310000     -34.78290000     -70.07770000
S      -43.35780000     -32.03020000     -74.18370000
S      -43.27080000     -33.65030000     -68.62850000
C      -45.02660000     -31.30820000     -73.97940000
H      -45.07230000     -30.38850000     -74.55680000
H      -45.76690000     -31.97490000     -74.41190000
C      -43.40770000     -32.11920000     -69.68440000
H      -43.46090000     -32.53590000     -70.73850000
H      -42.54180000     -31.46940000     -69.53480000
C      -44.71240000     -31.33940000     -69.37700000
H      -44.61400000     -30.84150000     -68.42190000
H      -44.75810000     -30.44720000     -70.10040000
C      -45.42460000     -31.13020000     -72.55420000
H      -45.92130000     -30.18440000     -72.44360000
H      -44.57140000     -31.02110000     -71.87660000
C      -46.43710000     -32.15790000     -72.07140000
C      -47.47060000     -32.68070000     -72.89090000
C      -46.55320000     -32.55510000     -70.70310000
H      -47.71860000     -32.48980000     -73.92820000
C      -47.65140000     -33.48150000     -70.49200000
C      -45.92170000     -32.24190000     -69.43630000
C      -46.53560000     -32.77090000     -68.34570000
S      -48.50740000     -33.78050000     -71.98070000
S      -47.95150000     -33.77640000     -68.78670000
H      -46.11380000     -32.80080000     -67.36450000
