40
Properties=species:S:1:pos:R:3 #=T CELL(abcABC):=T 1.889726e+02=T 90.00000=T Traj:=T positionsangstrom=T Step:=T 0=T Bead:=T pbc="F F F"
C      -44.34380000     -31.04120000     -73.93910000
C      -45.10000000     -32.01270000     -73.27510000
C      -44.75720000     -33.31400000     -73.55740000
C      -43.59470000     -33.63700000     -74.28830000
C      -42.80600000     -32.65100000     -74.85370000
C      -43.32630000     -31.31680000     -74.76430000
H      -44.53870000     -30.00610000     -73.78600000
H      -45.48860000     -34.07580000     -73.16530000
H      -41.92540000     -32.91770000     -75.49220000
H      -42.71960000     -30.47100000     -75.17480000
C      -43.12450000     -35.09950000     -74.40400000
H      -42.36150000     -35.30390000     -75.17560000
H      -43.89070000     -35.81550000     -74.64720000
C      -46.34440000     -31.56290000     -72.52020000
H      -46.94930000     -31.06710000     -73.30000000
H      -46.96240000     -32.34440000     -72.08730000
S      -42.28080000     -35.68570000     -72.83580000
S      -45.81880000     -30.24430000     -71.31670000
C      -43.64620000     -35.90280000     -71.56750000
H      -44.49540000     -36.43690000     -72.15400000
H      -43.25450000     -36.55030000     -70.76870000
C      -44.29060000     -31.02330000     -70.50410000
H      -43.53810000     -30.27980000     -70.19180000
H      -43.83610000     -31.63070000     -71.24420000
C      -44.67760000     -31.75190000     -69.22270000
H      -43.89600000     -32.39190000     -68.91880000
H      -44.69490000     -30.88600000     -68.43770000
C      -44.14160000     -34.68110000     -70.84230000
H      -44.09820000     -33.80850000     -71.48960000
H      -43.40710000     -34.48990000     -70.11730000
C      -45.52140000     -34.86440000     -70.31820000
C      -46.13200000     -36.04570000     -70.36270000
C      -46.27750000     -33.82960000     -69.61490000
H      -45.73240000     -36.90980000     -70.86000000
C      -47.57110000     -34.24300000     -69.28630000
C      -46.00350000     -32.46220000     -69.13430000
C      -47.09480000     -31.95370000     -68.45460000
S      -47.69500000     -35.98630000     -69.52170000
S      -48.49330000     -33.05330000     -68.33670000
H      -47.15060000     -31.01120000     -67.98970000
