40
Properties=species:S:1:pos:R:3 #=T CELL(abcABC):=T 1.889726e+02=T 90.00000=T Traj:=T positionsangstrom=T Step:=T 0=T Bead:=T pbc="F F F"
C      -44.70250000     -35.91220000     -70.84970000
C      -43.49370000     -35.13160000     -70.90450000
C      -43.16750000     -34.55740000     -72.13050000
C      -44.04680000     -34.63750000     -73.21870000
C      -45.22620000     -35.35650000     -73.13070000
C      -45.53540000     -35.98730000     -71.93360000
H      -44.92860000     -36.32610000     -69.87120000
H      -42.40200000     -33.81710000     -72.19980000
H      -45.93110000     -35.34630000     -74.01480000
H      -46.52440000     -36.42540000     -71.91190000
C      -43.59660000     -34.05890000     -74.54860000
H      -44.37350000     -34.22100000     -75.27800000
H      -42.77190000     -34.75460000     -74.74420000
C      -42.62210000     -34.97250000     -69.67530000
H      -42.58790000     -35.90250000     -69.14180000
H      -41.54130000     -34.78990000     -70.11660000
S      -43.22790000     -32.26870000     -74.43360000
S      -42.93490000     -33.60480000     -68.43530000
C      -44.89170000     -31.63310000     -74.12290000
H      -45.03460000     -30.74210000     -74.77020000
H      -45.62670000     -32.30010000     -74.62860000
C      -43.38120000     -32.28900000     -69.60910000
H      -43.23880000     -32.67660000     -70.58280000
H      -42.49520000     -31.52270000     -69.50040000
C      -44.66850000     -31.58560000     -69.27370000
H      -44.59620000     -31.34370000     -68.21120000
H      -44.73830000     -30.61730000     -69.81530000
C      -45.16230000     -31.42430000     -72.54590000
H      -45.27560000     -30.32380000     -72.20210000
H      -44.32130000     -31.78250000     -71.97850000
C      -46.38180000     -32.13920000     -72.13730000
C      -47.36670000     -32.63620000     -72.96930000
C      -46.70250000     -32.52760000     -70.70960000
H      -47.44130000     -32.52110000     -74.03530000
C      -47.91230000     -33.06600000     -70.56700000
C      -45.99980000     -32.32050000     -69.46320000
C      -46.75900000     -32.82750000     -68.45450000
S      -48.69750000     -33.39080000     -72.08150000
S      -48.31490000     -33.52640000     -68.95240000
H      -46.39550000     -32.73980000     -67.40330000
