40
Properties=species:S:1:pos:R:3 #=T CELL(abcABC):=T 1.889726e+02=T 90.00000=T Traj:=T positionsangstrom=T Step:=T 0=T Bead:=T pbc="F F F"
C      -48.75920000     -31.66570000     -72.80890000
C      -48.14310000     -31.36170000     -71.59640000
C      -48.02780000     -32.34670000     -70.56590000
C      -48.62480000     -33.61060000     -70.76650000
C      -49.08490000     -33.92550000     -72.03700000
C      -49.26240000     -32.98770000     -73.00160000
H      -48.83820000     -30.90590000     -73.57640000
H      -47.52630000     -32.16770000     -69.63020000
H      -49.35860000     -34.99700000     -72.23600000
H      -49.72960000     -33.23560000     -73.96980000
C      -48.68830000     -34.56020000     -69.62720000
H      -49.75570000     -34.87190000     -69.49020000
H      -48.41390000     -34.09460000     -68.78720000
C      -47.62580000     -30.04420000     -71.32640000
H      -48.39840000     -29.19500000     -71.44470000
H      -47.29090000     -29.92810000     -70.29500000
S      -47.63580000     -36.10480000     -69.89350000
S      -46.12850000     -29.72640000     -72.41180000
C      -46.10140000     -35.40070000     -70.67360000
H      -45.49320000     -36.27920000     -71.03820000
H      -46.29420000     -34.79260000     -71.55840000
C      -44.90270000     -30.92570000     -71.76020000
H      -44.96260000     -30.86740000     -70.61990000
H      -43.87140000     -30.59420000     -72.09730000
C      -45.06550000     -32.37860000     -72.23320000
H      -45.90770000     -32.99490000     -71.82220000
H      -45.26030000     -32.33410000     -73.31180000
C      -45.25250000     -34.58520000     -69.69130000
H      -45.41840000     -34.96320000     -68.64590000
H      -45.46640000     -33.55780000     -69.78800000
C      -43.73850000     -34.66690000     -70.00310000
C      -42.75170000     -35.37390000     -69.31850000
C      -43.14480000     -34.02310000     -71.23110000
H      -42.98500000     -36.13100000     -68.59050000
C      -41.83560000     -34.42130000     -71.48510000
C      -43.73240000     -33.17840000     -72.24600000
C      -42.75990000     -32.93560000     -73.18190000
S      -41.16680000     -35.26350000     -70.10180000
S      -41.10870000     -33.57000000     -72.80070000
H      -42.96920000     -32.28950000     -74.04540000
