40
Properties=species:S:1:pos:R:3 #=T CELL(abcABC):=T 1.889726e+02=T 90.00000=T Traj:=T positionsangstrom=T Step:=T 0=T Bead:=T pbc="F F F"
C      -45.11950000     -35.75170000     -70.73780000
C      -43.73630000     -35.38870000     -70.67930000
C      -43.15720000     -34.84190000     -71.85010000
C      -43.90260000     -34.72020000     -73.05060000
C      -45.24530000     -35.14420000     -73.03720000
C      -45.88270000     -35.57390000     -71.87890000
H      -45.69010000     -36.19890000     -69.88600000
H      -42.06760000     -34.55280000     -71.85540000
H      -45.78740000     -34.99370000     -73.96090000
H      -46.83990000     -35.94660000     -71.99430000
C      -43.22140000     -34.08590000     -74.24490000
H      -44.00450000     -34.08650000     -75.07300000
H      -42.23610000     -34.54690000     -74.48840000
C      -43.02110000     -35.39090000     -69.35560000
H      -43.16570000     -36.31480000     -68.87690000
H      -41.93970000     -35.32110000     -69.66450000
S      -42.81450000     -32.27370000     -73.91840000
S      -43.29550000     -34.01790000     -68.21280000
C      -44.52160000     -31.60070000     -74.07370000
H      -44.68140000     -30.78290000     -74.82700000
H      -45.12650000     -32.39260000     -74.52050000
C      -43.46010000     -32.55260000     -69.35850000
H      -43.44150000     -32.86030000     -70.40770000
H      -42.52640000     -31.94580000     -69.40860000
C      -44.70940000     -31.74110000     -69.25080000
H      -44.87820000     -31.30710000     -68.20620000
H      -44.56760000     -30.88380000     -69.99800000
C      -45.00690000     -31.22720000     -72.62550000
H      -45.09560000     -30.10560000     -72.69620000
H      -44.27180000     -31.57290000     -71.86870000
C      -46.29040000     -31.82700000     -72.24820000
C      -47.33320000     -31.92450000     -73.13770000
C      -46.68630000     -32.33600000     -70.92120000
H      -47.10490000     -31.68560000     -74.15400000
C      -47.90290000     -33.06230000     -70.98400000
C      -45.98160000     -32.41560000     -69.64520000
C      -46.71870000     -33.12760000     -68.66940000
S      -48.75770000     -32.84490000     -72.59750000
S      -48.21650000     -33.76250000     -69.38530000
H      -46.34640000     -33.38740000     -67.70890000
