40
Properties=species:S:1:pos:R:3 #=T CELL(abcABC):=T 1.889726e+02=T 90.00000=T Traj:=T positionsangstrom=T Step:=T 0=T Bead:=T pbc="F F F"
C      -48.68240000     -32.13440000     -73.26370000
C      -48.11270000     -31.68030000     -72.05760000
C      -48.11740000     -32.49320000     -70.91930000
C      -48.67860000     -33.79380000     -70.91460000
C      -49.40470000     -34.18910000     -72.04110000
C      -49.34660000     -33.39100000     -73.18870000
H      -48.57070000     -31.55980000     -74.17870000
H      -47.70880000     -32.02970000     -69.98990000
H      -50.01670000     -35.01950000     -71.93240000
H      -49.75200000     -33.90680000     -74.06100000
C      -48.62930000     -34.71440000     -69.63910000
H      -49.62970000     -35.12610000     -69.39870000
H      -48.30060000     -34.22510000     -68.75980000
C      -47.67260000     -30.24940000     -71.93350000
H      -48.38980000     -29.52820000     -72.41350000
H      -47.54330000     -29.92540000     -70.94850000
S      -47.70300000     -36.18770000     -69.93880000
S      -46.18070000     -29.95570000     -72.95880000
C      -45.90250000     -35.71450000     -70.39600000
H      -45.31630000     -36.55950000     -70.07440000
H      -45.90980000     -35.65670000     -71.53740000
C      -45.04370000     -31.06680000     -72.02830000
H      -45.49760000     -31.19910000     -71.02290000
H      -44.11100000     -30.49390000     -71.85350000
C      -44.81290000     -32.45880000     -72.58280000
H      -45.63750000     -33.19670000     -72.32880000
H      -44.84730000     -32.43900000     -73.69080000
C      -45.39620000     -34.36230000     -69.83190000
H      -45.63760000     -34.27940000     -68.83200000
H      -45.79280000     -33.46640000     -70.38190000
C      -43.87380000     -34.32740000     -69.94900000
C      -43.09940000     -34.94460000     -69.01700000
C      -43.10470000     -33.72480000     -71.03040000
H      -43.42490000     -35.23510000     -68.03640000
C      -41.71950000     -33.87420000     -70.84650000
C      -43.46820000     -33.05260000     -72.23910000
C      -42.36320000     -32.80760000     -72.96540000
S      -41.36660000     -34.88630000     -69.46660000
S      -40.80190000     -33.35870000     -72.28540000
H      -42.32310000     -32.14120000     -73.88900000
