40
Properties=species:S:1:pos:R:3 #=T CELL(abcABC):=T 1.889726e+02=T 90.00000=T Traj:=T positionsangstrom=T Step:=T 0=T Bead:=T pbc="F F F"
C      -48.89470000     -32.06860000     -73.16980000
C      -48.29860000     -31.64600000     -72.00480000
C      -48.14270000     -32.52950000     -70.91490000
C      -48.48650000     -33.93410000     -70.98610000
C      -48.97500000     -34.39860000     -72.23090000
C      -49.24950000     -33.46800000     -73.25170000
H      -49.25910000     -31.24250000     -73.86250000
H      -47.62520000     -32.27060000     -70.01860000
H      -49.23330000     -35.46150000     -72.41880000
H      -49.76580000     -33.81730000     -74.17360000
C      -48.58360000     -34.78030000     -69.76960000
H      -49.69360000     -35.17150000     -69.67170000
H      -48.24640000     -34.11950000     -68.95570000
C      -47.71640000     -30.26200000     -71.86480000
H      -48.51790000     -29.47970000     -71.99680000
H      -47.41900000     -30.20380000     -70.77770000
S      -47.46430000     -36.29870000     -69.89080000
S      -46.18510000     -29.83930000     -72.86300000
C      -45.98250000     -35.54560000     -70.57000000
H      -45.17590000     -36.30030000     -70.54720000
H      -46.17310000     -35.27230000     -71.61240000
C      -44.77780000     -30.89760000     -72.19570000
H      -44.77050000     -30.89180000     -71.13600000
H      -43.88040000     -30.45620000     -72.67070000
C      -44.78330000     -32.33960000     -72.75870000
H      -45.65570000     -32.84280000     -72.44400000
H      -44.81540000     -32.33270000     -73.83020000
C      -45.45780000     -34.37840000     -69.72410000
H      -45.71150000     -34.67080000     -68.68940000
H      -46.01800000     -33.46370000     -69.86330000
C      -43.98270000     -34.32790000     -69.94160000
C      -43.17510000     -34.88300000     -68.99510000
C      -43.25200000     -33.89400000     -71.12870000
H      -43.55110000     -35.34540000     -68.03410000
C      -41.87690000     -34.03480000     -70.90900000
C      -43.52640000     -33.01830000     -72.26890000
C      -42.34640000     -32.64730000     -72.90300000
S      -41.51470000     -34.91670000     -69.44200000
S      -40.87890000     -33.32350000     -72.13790000
H      -42.24140000     -32.08400000     -73.81990000
