40
Properties=species:S:1:pos:R:3 #=T CELL(abcABC):=T 1.889726e+02=T 90.00000=T Traj:=T positionsangstrom=T Step:=T 0=T Bead:=T pbc="F F F"
C      -48.24560000     -32.28440000     -73.63630000
C      -48.30240000     -31.94590000     -72.29150000
C      -48.45930000     -32.89520000     -71.26030000
C      -48.66830000     -34.27090000     -71.69200000
C      -48.65750000     -34.59710000     -73.09480000
C      -48.38370000     -33.62520000     -74.05310000
H      -48.01420000     -31.47700000     -74.32120000
H      -48.50730000     -32.64800000     -70.19090000
H      -48.77050000     -35.59010000     -73.52620000
H      -48.43140000     -34.01030000     -75.13150000
C      -48.88770000     -35.30620000     -70.64930000
H      -49.80540000     -35.89460000     -70.61610000
H      -48.99620000     -34.79450000     -69.68500000
C      -48.10470000     -30.54390000     -71.78180000
H      -48.81210000     -29.93070000     -72.31530000
H      -48.41410000     -30.53220000     -70.76190000
S      -47.50500000     -36.54130000     -70.51300000
S      -46.45580000     -29.77970000     -72.06290000
C      -46.00450000     -35.53850000     -70.91560000
H      -45.19230000     -36.19470000     -71.07360000
H      -46.17370000     -34.90620000     -71.72860000
C      -45.21020000     -30.82470000     -71.25430000
H      -45.53080000     -31.11610000     -70.25250000
H      -44.39170000     -30.14830000     -71.46940000
C      -44.91420000     -32.03360000     -72.08230000
H      -45.66210000     -32.82460000     -71.91000000
H      -44.87760000     -31.82540000     -73.21260000
C      -45.50550000     -34.46950000     -69.79090000
H      -45.84300000     -34.59350000     -68.74400000
H      -45.82870000     -33.47310000     -70.10960000
C      -43.90600000     -34.42700000     -69.77740000
C      -43.03100000     -35.25120000     -69.07620000
C      -43.16120000     -33.55750000     -70.73540000
H      -43.29630000     -35.85830000     -68.17720000
C      -41.78910000     -33.64960000     -70.54570000
C      -43.49670000     -32.61950000     -71.73110000
C      -42.41020000     -32.13000000     -72.39000000
S      -41.34500000     -34.87670000     -69.43060000
S      -40.83780000     -32.78200000     -71.82980000
H      -42.42260000     -31.36610000     -73.17540000
