40
Properties=species:S:1:pos:R:3 #=T CELL(abcABC):=T 1.889726e+02=T 90.00000=T Traj:=T positionsangstrom=T Step:=T 0=T Bead:=T pbc="F F F"
C      -45.84040000     -32.38090000     -67.39990000
C      -46.48070000     -32.45180000     -68.68850000
C      -46.27150000     -33.62160000     -69.45830000
C      -45.42280000     -34.64260000     -68.97470000
C      -44.81680000     -34.48550000     -67.69340000
C      -45.06320000     -33.43540000     -66.88170000
H      -45.92470000     -31.48930000     -66.81330000
H      -46.77080000     -33.76520000     -70.46490000
H      -44.22600000     -35.40720000     -67.32960000
H      -44.67600000     -33.48140000     -65.85260000
C      -45.18750000     -35.86870000     -69.83180000
H      -45.68770000     -35.66610000     -70.82920000
H      -45.38290000     -36.66420000     -69.20080000
C      -46.97130000     -31.24570000     -69.43510000
H      -47.55050000     -31.54400000     -70.32820000
H      -47.67340000     -30.54900000     -68.83910000
S      -43.47700000     -36.24290000     -70.36430000
S      -45.64430000     -30.03130000     -69.98320000
C      -42.86490000     -34.63110000     -70.97840000
H      -43.45820000     -33.86300000     -70.47240000
H      -41.80840000     -34.68520000     -70.74360000
C      -44.29650000     -31.10640000     -70.63280000
H      -44.49790000     -32.07590000     -70.20540000
H      -43.34820000     -30.82780000     -70.08330000
C      -44.08030000     -31.22070000     -72.12440000
H      -43.95940000     -30.18960000     -72.51360000
H      -43.12880000     -31.80380000     -72.24760000
C      -42.88610000     -34.46370000     -72.56640000
H      -42.32140000     -35.35990000     -72.92360000
H      -42.25110000     -33.63790000     -72.85640000
C      -44.24360000     -34.40510000     -73.15400000
C      -44.68110000     -35.52450000     -73.84800000
C      -45.23070000     -33.36560000     -73.12930000
H      -44.01130000     -36.26760000     -74.06010000
C      -46.35930000     -33.70690000     -73.88880000
C      -45.23860000     -31.98350000     -72.70150000
C      -46.37830000     -31.36790000     -73.08170000
S      -46.27070000     -35.33350000     -74.56490000
S      -47.42860000     -32.38390000     -74.08100000
H      -46.51930000     -30.26750000     -73.01280000
