40
Properties=species:S:1:pos:R:3 #=T CELL(abcABC):=T 1.889726e+02=T 90.00000=T Traj:=T positionsangstrom=T Step:=T 0=T Bead:=T pbc="F F F"
C      -46.16950000     -32.30800000     -67.67520000
C      -46.22590000     -32.30060000     -69.05140000
C      -45.93990000     -33.43860000     -69.86000000
C      -45.55890000     -34.69050000     -69.19890000
C      -45.43780000     -34.65970000     -67.81110000
C      -45.68430000     -33.46630000     -67.10000000
H      -46.41790000     -31.48710000     -67.09450000
H      -46.10990000     -33.26090000     -70.92020000
H      -45.03920000     -35.51430000     -67.37710000
H      -45.49720000     -33.43750000     -65.99800000
C      -45.10190000     -35.99650000     -69.88440000
H      -45.74070000     -36.16560000     -70.80400000
H      -45.25290000     -36.82370000     -69.22370000
C      -46.62820000     -31.06560000     -69.81640000
H      -47.16320000     -31.42280000     -70.75350000
H      -47.29770000     -30.53010000     -69.21660000
S      -43.25980000     -36.23500000     -70.17930000
S      -45.18160000     -30.00430000     -70.24190000
C      -42.65220000     -34.61730000     -70.83630000
H      -43.16180000     -33.79380000     -70.28770000
H      -41.59570000     -34.51660000     -70.63300000
C      -44.00280000     -31.15350000     -70.96170000
H      -44.09010000     -32.13070000     -70.47200000
H      -43.01430000     -30.92630000     -70.49180000
C      -43.84650000     -31.23900000     -72.51200000
H      -43.83920000     -30.28110000     -73.00700000
H      -42.88580000     -31.83750000     -72.71530000
C      -42.94920000     -34.46740000     -72.37550000
H      -42.38450000     -35.19620000     -73.03610000
H      -42.52520000     -33.50040000     -72.58640000
C      -44.38520000     -34.49450000     -72.90360000
C      -45.08790000     -35.63630000     -73.09530000
C      -45.20320000     -33.33420000     -73.25230000
H      -44.80100000     -36.65200000     -72.87890000
C      -46.45950000     -33.70170000     -73.74550000
C      -44.97680000     -31.90170000     -73.20560000
C      -46.17710000     -31.26810000     -73.42610000
S      -46.80190000     -35.42530000     -73.64280000
S      -47.51090000     -32.38500000     -74.02610000
H      -46.42690000     -30.23110000     -73.29060000
