40
Properties=species:S:1:pos:R:3 #=T CELL(abcABC):=T 1.889726e+02=T 90.00000=T Traj:=T positionsangstrom=T Step:=T 0=T Bead:=T pbc="F F F"
C      -44.25320000     -31.04630000     -74.06210000
C      -45.05140000     -31.92670000     -73.39080000
C      -44.75820000     -33.29240000     -73.50310000
C      -43.83910000     -33.80250000     -74.42730000
C      -43.05420000     -32.82430000     -75.15610000
C      -43.23660000     -31.52550000     -74.93400000
H      -44.30170000     -29.97780000     -73.81850000
H      -45.26230000     -33.96780000     -72.89920000
H      -42.35610000     -33.17030000     -75.96240000
H      -42.64470000     -30.80840000     -75.48380000
C      -43.41730000     -35.23020000     -74.41320000
H      -42.79920000     -35.49780000     -75.27450000
H      -44.31920000     -35.91530000     -74.47500000
C      -46.28370000     -31.34890000     -72.62500000
H      -46.90290000     -30.76980000     -73.29400000
H      -46.92130000     -32.17870000     -72.33080000
S      -42.39600000     -35.48660000     -72.86610000
S      -45.60690000     -30.28480000     -71.22730000
C      -43.60830000     -35.92030000     -71.52460000
H      -44.52550000     -36.28260000     -71.99790000
H      -43.16550000     -36.92810000     -71.14390000
C      -44.30980000     -31.20380000     -70.40630000
H      -43.47620000     -30.60260000     -70.42470000
H      -44.08160000     -32.07080000     -70.99290000
C      -44.63720000     -31.73160000     -68.98990000
H      -43.66530000     -32.27350000     -68.68510000
H      -44.73450000     -30.89990000     -68.37690000
C      -43.94530000     -34.81300000     -70.47730000
H      -43.76900000     -33.86190000     -70.91300000
H      -43.24830000     -34.94660000     -69.62470000
C      -45.43010000     -34.89830000     -70.06170000
C      -46.19290000     -35.98470000     -70.35950000
C      -46.14580000     -33.85040000     -69.39620000
H      -45.90150000     -36.91240000     -70.79220000
C      -47.48740000     -34.24470000     -69.17820000
C      -45.85170000     -32.58160000     -68.82850000
C      -47.01170000     -31.98990000     -68.30260000
S      -47.87740000     -35.79840000     -69.86400000
S      -48.49100000     -33.04140000     -68.39810000
H      -47.06370000     -30.93920000     -67.95680000
