40
Properties=species:S:1:pos:R:3 #=T CELL(abcABC):=T 1.889726e+02=T 90.00000=T Traj:=T positionsangstrom=T Step:=T 0=T Bead:=T pbc="F F F"
C      -45.49840000     -32.52910000     -67.43030000
C      -46.07270000     -32.53450000     -68.67340000
C      -45.93760000     -33.70410000     -69.51140000
C      -45.21400000     -34.83260000     -69.06400000
C      -44.62780000     -34.78690000     -67.82360000
C      -44.72400000     -33.61680000     -67.01070000
H      -45.53900000     -31.55680000     -66.95560000
H      -46.31760000     -33.71240000     -70.53250000
H      -44.14680000     -35.67110000     -67.48870000
H      -44.18880000     -33.57930000     -66.03200000
C      -45.00620000     -36.00160000     -69.99530000
H      -45.69610000     -35.94430000     -70.81910000
H      -44.98140000     -36.94900000     -69.40990000
C      -47.02380000     -31.49810000     -69.22020000
H      -47.68800000     -31.89770000     -70.01070000
H      -47.63840000     -31.12310000     -68.40510000
S      -43.25840000     -36.03400000     -70.75480000
S      -46.19770000     -30.03230000     -69.96430000
C      -42.80210000     -34.26900000     -71.02940000
H      -43.59080000     -33.78590000     -70.40780000
H      -41.75740000     -34.07910000     -70.60460000
C      -44.67390000     -30.73730000     -70.71920000
H      -44.44460000     -31.69660000     -70.24220000
H      -43.89870000     -30.06180000     -70.37430000
C      -44.53620000     -30.94780000     -72.23870000
H      -44.64900000     -30.00830000     -72.76550000
H      -43.58130000     -31.29390000     -72.43990000
C      -42.76590000     -33.86800000     -72.49770000
H      -41.94730000     -34.38570000     -72.92940000
H      -42.47850000     -32.80400000     -72.49310000
C      -44.04770000     -34.07180000     -73.26100000
C      -44.35380000     -35.30900000     -73.74850000
C      -45.17170000     -33.16710000     -73.29330000
H      -43.72330000     -36.16710000     -73.69740000
C      -46.30580000     -33.80450000     -73.81500000
C      -45.55190000     -31.89890000     -72.77850000
C      -46.87000000     -31.55010000     -72.95850000
S      -46.01680000     -35.43570000     -74.32720000
S      -47.75510000     -32.85060000     -73.73490000
H      -47.43310000     -30.64260000     -72.77000000
