40
Properties=species:S:1:pos:R:3 #=T CELL(abcABC):=T 1.889726e+02=T 90.00000=T Traj:=T positionsangstrom=T Step:=T 0=T Bead:=T pbc="F F F"
C      -48.06270000     -31.93150000     -73.75350000
C      -47.99910000     -31.56650000     -72.34240000
C      -48.27820000     -32.53640000     -71.39060000
C      -48.55560000     -33.82700000     -71.71810000
C      -48.67820000     -34.17340000     -73.08220000
C      -48.39590000     -33.20920000     -74.01110000
H      -47.82110000     -31.17960000     -74.50130000
H      -48.25990000     -32.16960000     -70.37400000
H      -48.85330000     -35.18570000     -73.32500000
H      -48.16350000     -33.63200000     -75.03890000
C      -48.71990000     -34.90070000     -70.58170000
H      -49.74950000     -35.11450000     -70.45630000
H      -48.40070000     -34.43980000     -69.60900000
C      -47.81580000     -30.17970000     -71.93200000
H      -48.36760000     -29.49450000     -72.59090000
H      -48.37470000     -30.10630000     -70.95570000
S      -47.82780000     -36.43790000     -70.87360000
S      -46.07680000     -29.51400000     -71.69740000
C      -46.03750000     -36.03400000     -70.87370000
H      -45.42280000     -36.92010000     -70.65080000
H      -45.68370000     -35.93550000     -71.87670000
C      -45.23990000     -30.94100000     -70.94680000
H      -45.89160000     -31.41750000     -70.19090000
H      -44.44040000     -30.49440000     -70.39300000
C      -44.77790000     -31.99340000     -72.01710000
H      -45.53650000     -32.65170000     -72.15220000
H      -44.75650000     -31.45770000     -73.01030000
C      -45.65200000     -34.81410000     -70.05590000
H      -45.95320000     -34.88650000     -69.03190000
H      -46.16930000     -34.01170000     -70.54150000
C      -44.10370000     -34.67260000     -70.04830000
C      -43.35910000     -35.52160000     -69.27340000
C      -43.24730000     -33.87340000     -70.92020000
H      -43.66910000     -36.14860000     -68.36470000
C      -41.86400000     -34.20180000     -70.76240000
C      -43.45630000     -32.66300000     -71.70870000
C      -42.27170000     -32.12710000     -72.12850000
S      -41.59460000     -35.37830000     -69.53240000
S      -40.92340000     -32.96960000     -71.45200000
H      -42.00220000     -31.32740000     -72.87460000
