40
Properties=species:S:1:pos:R:3 #=T CELL(abcABC):=T 1.889726e+02=T 90.00000=T Traj:=T positionsangstrom=T Step:=T 0=T Bead:=T pbc="F F F"
C      -45.91810000     -32.79080000     -67.53810000
C      -46.30420000     -32.78320000     -68.85130000
C      -45.90740000     -33.81190000     -69.71050000
C      -44.98410000     -34.78660000     -69.33770000
C      -44.59280000     -34.70720000     -67.91550000
C      -45.00940000     -33.74980000     -67.00310000
H      -46.31480000     -31.99330000     -66.84150000
H      -46.09820000     -33.67400000     -70.77130000
H      -43.88940000     -35.48640000     -67.47980000
H      -44.74100000     -33.59890000     -65.96290000
C      -44.61000000     -35.89750000     -70.28120000
H      -45.18150000     -35.63590000     -71.19620000
H      -44.81340000     -36.90430000     -69.97620000
C      -46.95380000     -31.57130000     -69.34370000
H      -47.47260000     -31.74520000     -70.26330000
H      -47.75600000     -31.25770000     -68.63420000
S      -42.79330000     -35.78690000     -70.58140000
S      -45.67520000     -30.13630000     -69.62660000
C      -42.56970000     -34.10570000     -71.22020000
H      -43.13810000     -33.40110000     -70.55630000
H      -41.49880000     -33.89470000     -71.08260000
C      -44.32410000     -30.95370000     -70.54570000
H      -44.02260000     -31.91580000     -70.05910000
H      -43.49890000     -30.18290000     -70.44400000
C      -44.63770000     -31.05880000     -72.04760000
H      -44.83990000     -30.08250000     -72.32650000
H      -43.67010000     -31.26150000     -72.53760000
C      -42.97110000     -33.85710000     -72.69670000
H      -42.29040000     -34.48710000     -73.31190000
H      -42.81100000     -32.87030000     -72.99750000
C      -44.37870000     -34.23610000     -73.12980000
C      -44.69510000     -35.42620000     -73.72640000
C      -45.49420000     -33.30570000     -73.11270000
H      -44.02050000     -36.23850000     -73.81350000
C      -46.61740000     -33.74960000     -73.75970000
C      -45.66930000     -31.97080000     -72.70260000
C      -46.84520000     -31.39840000     -73.16230000
S      -46.37030000     -35.42160000     -74.29710000
S      -47.91470000     -32.62760000     -73.81410000
H      -47.26460000     -30.51770000     -72.71460000
