40
Properties=species:S:1:pos:R:3 #=T CELL(abcABC):=T 1.889726e+02=T 90.00000=T Traj:=T positionsangstrom=T Step:=T 0=T Bead:=T pbc="F F F"
C      -45.56360000     -32.58790000     -67.45730000
C      -46.14690000     -32.66760000     -68.72820000
C      -45.98160000     -33.72620000     -69.58380000
C      -45.12470000     -34.82790000     -69.17280000
C      -44.62560000     -34.75100000     -67.94680000
C      -44.80960000     -33.66390000     -67.04810000
H      -45.76360000     -31.72010000     -66.75660000
H      -46.60110000     -33.76180000     -70.42670000
H      -43.91550000     -35.50560000     -67.73350000
H      -44.45080000     -33.86280000     -66.03160000
C      -44.77540000     -35.95570000     -70.06610000
H      -45.43840000     -36.09210000     -70.91370000
H      -44.91030000     -36.91650000     -69.53470000
C      -46.98680000     -31.52710000     -69.25060000
H      -47.46900000     -31.85490000     -70.17670000
H      -47.71000000     -31.21190000     -68.49190000
S      -43.03710000     -35.90650000     -70.67650000
S      -45.99450000     -29.98750000     -69.64730000
C      -42.79010000     -34.18270000     -71.19250000
H      -43.50970000     -33.64190000     -70.64910000
H      -41.86730000     -33.94910000     -70.73420000
C      -44.53800000     -30.72570000     -70.61220000
H      -44.26950000     -31.65100000     -70.15160000
H      -43.69610000     -30.02860000     -70.57470000
C      -44.71790000     -30.93610000     -72.11120000
H      -45.03650000     -29.95690000     -72.59010000
H      -43.62260000     -31.05130000     -72.39420000
C      -42.79480000     -33.93380000     -72.68190000
H      -42.06430000     -34.63620000     -73.07930000
H      -42.43130000     -32.90150000     -72.99430000
C      -44.17140000     -34.23910000     -73.21220000
C      -44.53170000     -35.40310000     -73.81330000
C      -45.30850000     -33.31740000     -73.12820000
H      -43.84760000     -36.16610000     -74.01750000
C      -46.47580000     -33.86880000     -73.69690000
C      -45.63360000     -31.98360000     -72.71270000
C      -46.86410000     -31.50300000     -73.08330000
S      -46.19210000     -35.45230000     -74.30970000
S      -47.75590000     -32.75400000     -73.92920000
H      -47.17680000     -30.45540000     -72.95440000
