40
Properties=species:S:1:pos:R:3 #=T CELL(abcABC):=T 1.889726e+02=T 90.00000=T Traj:=T positionsangstrom=T Step:=T 0=T Bead:=T pbc="F F F"
C      -47.93540000     -31.82490000     -73.60130000
C      -48.00340000     -31.43360000     -72.25390000
C      -48.16180000     -32.41110000     -71.21970000
C      -48.44010000     -33.75280000     -71.51520000
C      -48.42700000     -34.09570000     -72.91150000
C      -48.06090000     -33.21700000     -73.90820000
H      -47.69520000     -31.01620000     -74.31200000
H      -48.04060000     -32.14830000     -70.13580000
H      -48.55460000     -35.13760000     -73.29390000
H      -47.92440000     -33.40340000     -74.97800000
C      -48.88900000     -34.79560000     -70.54880000
H      -49.90970000     -35.10470000     -70.71070000
H      -48.71520000     -34.61060000     -69.47690000
C      -47.72630000     -29.98210000     -71.91080000
H      -48.13400000     -29.32220000     -72.76700000
H      -48.17790000     -29.80290000     -71.01570000
S      -47.93950000     -36.43360000     -70.75840000
S      -45.96330000     -29.55000000     -71.81490000
C      -46.28300000     -35.66560000     -71.18550000
H      -45.67070000     -36.60690000     -71.27790000
H      -46.32470000     -35.06470000     -72.09450000
C      -45.19500000     -31.07750000     -71.05890000
H      -45.90310000     -31.45830000     -70.31550000
H      -44.30790000     -30.69790000     -70.46620000
C      -44.80450000     -32.17100000     -72.10900000
H      -45.55850000     -32.96920000     -72.19670000
H      -44.76060000     -31.74800000     -73.16110000
C      -45.70470000     -34.79260000     -70.10700000
H      -45.99110000     -35.30290000     -69.09770000
H      -46.10590000     -33.80610000     -70.12350000
C      -44.17120000     -34.69780000     -70.04900000
C      -43.44990000     -35.63020000     -69.35390000
C      -43.31680000     -33.78250000     -70.76540000
H      -43.80590000     -36.54500000     -68.81410000
C      -41.95600000     -34.07480000     -70.54880000
C      -43.48760000     -32.70440000     -71.69720000
C      -42.34330000     -32.24870000     -72.22240000
S      -41.65490000     -35.50710000     -69.53830000
S      -40.91710000     -33.12290000     -71.61910000
H      -42.17280000     -31.48060000     -73.03410000
