40
Properties=species:S:1:pos:R:3 #=T CELL(abcABC):=T 1.889726e+02=T 90.00000=T Traj:=T positionsangstrom=T Step:=T 0=T Bead:=T pbc="F F F"
C      -46.27220000     -33.09440000     -67.52350000
C      -46.25670000     -32.94180000     -68.91950000
C      -45.52830000     -33.86080000     -69.68590000
C      -44.88070000     -34.93780000     -69.15920000
C      -45.06950000     -35.10500000     -67.78420000
C      -45.64830000     -34.16560000     -66.92550000
H      -46.78350000     -32.41550000     -66.89070000
H      -45.39960000     -33.69370000     -70.76490000
H      -44.46630000     -35.82650000     -67.22220000
H      -45.67870000     -34.43840000     -65.87210000
C      -44.30250000     -35.96100000     -70.05610000
H      -44.87520000     -36.08460000     -70.96960000
H      -44.27680000     -36.94860000     -69.69060000
C      -46.90340000     -31.84230000     -69.73050000
H      -46.91880000     -32.16980000     -70.80520000
H      -47.86180000     -31.51360000     -69.35300000
S      -42.60640000     -35.58730000     -70.49890000
S      -45.79270000     -30.27080000     -69.80720000
C      -42.62250000     -33.97380000     -71.35520000
H      -43.20330000     -33.18420000     -70.87880000
H      -41.57660000     -33.77050000     -71.35920000
C      -44.33300000     -30.64720000     -70.98850000
H      -43.77680000     -31.59870000     -70.50080000
H      -43.65320000     -29.75560000     -70.81940000
C      -44.38570000     -30.84130000     -72.53470000
H      -44.58520000     -29.79410000     -73.03670000
H      -43.35820000     -31.13190000     -72.75740000
C      -42.90500000     -33.96040000     -72.86420000
H      -42.31540000     -34.65960000     -73.30980000
H      -42.60940000     -32.96140000     -73.21430000
C      -44.33000000     -34.09340000     -73.28290000
C      -44.79500000     -35.37250000     -73.59070000
C      -45.38150000     -33.12850000     -73.28020000
H      -44.25910000     -36.35770000     -73.70350000
C      -46.63610000     -33.70080000     -73.51610000
C      -45.45830000     -31.75940000     -72.94290000
C      -46.74570000     -31.27260000     -73.08330000
S      -46.51070000     -35.37780000     -73.97840000
S      -47.87810000     -32.50710000     -73.50930000
H      -46.95940000     -30.20330000     -72.97000000
