40
Properties=species:S:1:pos:R:3 #=T CELL(abcABC):=T 1.889726e+02=T 90.00000=T Traj:=T positionsangstrom=T Step:=T 0=T Bead:=T pbc="F F F"
C      -45.48090000     -32.50530000     -67.51350000
C      -46.13200000     -32.54000000     -68.72420000
C      -46.01810000     -33.76650000     -69.42550000
C      -45.29070000     -34.87290000     -68.96540000
C      -44.57440000     -34.78680000     -67.72140000
C      -44.66070000     -33.55240000     -67.02810000
H      -45.69770000     -31.71120000     -66.91540000
H      -46.49130000     -33.90950000     -70.43450000
H      -43.93320000     -35.69620000     -67.47160000
H      -44.06150000     -33.37710000     -66.14510000
C      -45.13240000     -36.03570000     -69.88060000
H      -45.92570000     -36.03730000     -70.66840000
H      -45.21310000     -37.01790000     -69.40010000
C      -46.95210000     -31.36980000     -69.14250000
H      -47.88570000     -31.78290000     -69.58260000
H      -47.31820000     -30.84100000     -68.23370000
S      -43.40630000     -36.08050000     -70.79030000
S      -46.18630000     -30.13000000     -70.22750000
C      -42.87560000     -34.30100000     -70.87140000
H      -43.54620000     -33.62390000     -70.34680000
H      -41.88270000     -34.12080000     -70.57300000
C      -44.57790000     -30.69900000     -70.78410000
H      -44.34850000     -31.69910000     -70.31120000
H      -43.89450000     -29.93500000     -70.42220000
C      -44.53480000     -30.81400000     -72.29560000
H      -44.80300000     -29.83580000     -72.74870000
H      -43.49950000     -31.06760000     -72.62780000
C      -42.78620000     -33.81800000     -72.35050000
H      -42.03800000     -34.53510000     -72.79300000
H      -42.44940000     -32.79140000     -72.42820000
C      -44.03420000     -34.03370000     -73.18160000
C      -44.23210000     -35.21910000     -73.84350000
C      -45.22350000     -33.19870000     -73.14660000
H      -43.52870000     -36.09670000     -73.87740000
C      -46.33630000     -33.92120000     -73.68510000
C      -45.52760000     -31.82550000     -72.77420000
C      -46.81790000     -31.47230000     -73.08390000
S      -45.89740000     -35.42550000     -74.41830000
S      -47.72960000     -32.88620000     -73.60740000
H      -47.40110000     -30.60080000     -72.80750000
