40
Properties=species:S:1:pos:R:3 #=T CELL(abcABC):=T 1.889726e+02=T 90.00000=T Traj:=T positionsangstrom=T Step:=T 0=T Bead:=T pbc="F F F"
C      -47.95780000     -31.48370000     -73.55400000
C      -48.02860000     -31.16840000     -72.21270000
C      -48.27750000     -32.25940000     -71.25750000
C      -48.53790000     -33.55260000     -71.65760000
C      -48.47320000     -33.85660000     -73.08340000
C      -48.24660000     -32.81650000     -73.97210000
H      -47.68610000     -30.67140000     -74.22170000
H      -48.21120000     -31.95710000     -70.14920000
H      -48.69940000     -34.87410000     -73.51860000
H      -48.29730000     -32.89100000     -75.09290000
C      -49.04680000     -34.57850000     -70.68240000
H      -50.00630000     -35.10440000     -70.88730000
H      -49.12310000     -34.12480000     -69.64660000
C      -47.48210000     -29.84350000     -71.69010000
H      -48.07490000     -28.97580000     -72.22400000
H      -47.74220000     -29.83200000     -70.68930000
S      -47.92350000     -36.02200000     -70.44860000
S      -45.71310000     -29.53110000     -71.87360000
C      -46.23800000     -35.50290000     -70.95100000
H      -45.61790000     -36.44600000     -71.05920000
H      -46.13270000     -34.97060000     -71.91740000
C      -45.12730000     -31.08380000     -71.06190000
H      -45.76300000     -31.28550000     -70.22900000
H      -44.07930000     -30.83300000     -70.74720000
C      -44.88840000     -32.30260000     -72.01050000
H      -45.66410000     -33.01270000     -71.99180000
H      -44.85750000     -31.84620000     -73.04730000
C      -45.59700000     -34.64520000     -69.80760000
H      -46.05380000     -34.99030000     -68.82070000
H      -45.79790000     -33.65230000     -69.86420000
C      -44.14960000     -34.86440000     -69.91860000
C      -43.42370000     -35.82230000     -69.28860000
C      -43.29950000     -34.03630000     -70.78500000
H      -43.73080000     -36.46620000     -68.42320000
C      -41.95030000     -34.42790000     -70.69850000
C      -43.53910000     -33.01560000     -71.71110000
C      -42.35460000     -32.63610000     -72.36030000
S      -41.76140000     -35.72840000     -69.62940000
S      -40.97640000     -33.58130000     -71.92890000
H      -42.28020000     -31.86730000     -73.11790000
