40
Properties=species:S:1:pos:R:3 #=T CELL(abcABC):=T 1.889726e+02=T 90.00000=T Traj:=T positionsangstrom=T Step:=T 0=T Bead:=T pbc="F F F"
C      -47.94440000     -31.45200000     -73.50120000
C      -47.77510000     -31.21710000     -72.09380000
C      -48.18510000     -32.22690000     -71.20120000
C      -48.75770000     -33.44530000     -71.71210000
C      -48.90040000     -33.70840000     -73.09360000
C      -48.51980000     -32.67540000     -73.95310000
H      -47.83200000     -30.68880000     -74.25630000
H      -48.14000000     -32.16510000     -70.19070000
H      -49.40250000     -34.58810000     -73.47980000
H      -48.74340000     -32.75950000     -75.03860000
C      -49.20060000     -34.46830000     -70.66640000
H      -50.18620000     -34.77660000     -70.96280000
H      -49.15820000     -33.95870000     -69.67240000
C      -47.33740000     -29.94630000     -71.50510000
H      -47.72880000     -29.12590000     -71.93960000
H      -47.58920000     -29.91440000     -70.44780000
S      -48.19100000     -35.97320000     -70.54850000
S      -45.50810000     -29.45580000     -71.52090000
C      -46.47300000     -35.42970000     -70.87280000
H      -45.85330000     -36.30850000     -71.12970000
H      -46.52810000     -34.75990000     -71.70990000
C      -44.67170000     -31.05650000     -70.96630000
H      -44.97200000     -31.50590000     -70.02290000
H      -43.68650000     -30.72960000     -70.82570000
C      -44.60700000     -32.14830000     -72.10530000
H      -45.63610000     -32.64200000     -72.17040000
H      -44.54730000     -31.67710000     -73.09120000
C      -45.71440000     -34.61640000     -69.79600000
H      -46.04530000     -35.08800000     -68.90260000
H      -46.01580000     -33.51380000     -69.87820000
C      -44.16940000     -34.85560000     -69.93120000
C      -43.46620000     -35.75590000     -69.20860000
C      -43.28040000     -34.13570000     -70.87260000
H      -43.77030000     -36.46100000     -68.46060000
C      -41.99300000     -34.62250000     -70.96760000
C      -43.43490000     -33.02860000     -71.84480000
C      -42.25770000     -32.80060000     -72.53140000
S      -41.73080000     -35.66760000     -69.61430000
S      -40.91500000     -33.91540000     -72.15700000
H      -42.08580000     -32.04710000     -73.30540000
