40
Properties=species:S:1:pos:R:3 #=T CELL(abcABC):=T 1.889726e+02=T 90.00000=T Traj:=T positionsangstrom=T Step:=T 0=T Bead:=T pbc="F F F"
C      -47.91070000     -31.47030000     -73.60820000
C      -47.85020000     -31.20670000     -72.18350000
C      -48.13860000     -32.19130000     -71.26760000
C      -48.62440000     -33.43790000     -71.71980000
C      -48.86210000     -33.64620000     -73.08550000
C      -48.34220000     -32.73450000     -74.00990000
H      -47.47790000     -30.76950000     -74.36510000
H      -47.97150000     -31.91250000     -70.21260000
H      -49.27490000     -34.63670000     -73.40970000
H      -48.42080000     -32.99130000     -75.06550000
C      -49.17980000     -34.49430000     -70.72580000
H      -50.13440000     -34.92720000     -71.05940000
H      -49.46720000     -34.07260000     -69.77210000
C      -47.52400000     -29.88590000     -71.59360000
H      -47.81870000     -28.95230000     -72.14640000
H      -47.91080000     -29.81450000     -70.53080000
S      -48.07080000     -35.99910000     -70.43630000
S      -45.60090000     -29.54720000     -71.67950000
C      -46.31130000     -35.50520000     -70.77260000
H      -45.81750000     -36.46740000     -70.81680000
H      -46.33730000     -35.13080000     -71.77090000
C      -44.77100000     -31.05490000     -71.05040000
H      -45.33240000     -31.36040000     -70.13630000
H      -43.72610000     -30.72480000     -70.68470000
C      -44.72690000     -32.19250000     -72.09100000
H      -45.62120000     -32.82480000     -71.98450000
H      -44.59700000     -31.77700000     -73.04520000
C      -45.62320000     -34.62060000     -69.72390000
H      -45.80730000     -35.02960000     -68.67050000
H      -46.02010000     -33.64850000     -69.69280000
C      -44.13810000     -34.77900000     -69.83430000
C      -43.42500000     -35.63400000     -69.08550000
C      -43.34380000     -34.07610000     -70.84300000
H      -43.81920000     -36.29010000     -68.26190000
C      -42.01990000     -34.48860000     -70.86670000
C      -43.52080000     -33.08050000     -71.85000000
C      -42.36410000     -32.84820000     -72.57080000
S      -41.79190000     -35.81430000     -69.74670000
S      -40.88670000     -33.72030000     -71.97220000
H      -42.33590000     -32.07550000     -73.34670000
