40
Properties=species:S:1:pos:R:3 #=T CELL(abcABC):=T 1.889726e+02=T 90.00000=T Traj:=T positionsangstrom=T Step:=T 0=T Bead:=T pbc="F F F"
C      -44.94220000     -30.44410000     -72.94490000
C      -43.74620000     -31.12870000     -73.02900000
C      -43.00760000     -31.26930000     -71.88360000
C      -43.39300000     -30.67100000     -70.65860000
C      -44.54530000     -29.90090000     -70.62310000
C      -45.29700000     -29.70430000     -71.79400000
H      -45.54730000     -30.30150000     -73.85160000
H      -42.13650000     -31.87080000     -71.98220000
H      -44.89700000     -29.47570000     -69.69860000
H      -46.12660000     -29.00570000     -71.87650000
C      -42.55610000     -30.87080000     -69.43750000
H      -42.84510000     -30.27370000     -68.59780000
H      -41.55260000     -30.48990000     -69.66180000
C      -43.25390000     -31.65470000     -74.39860000
H      -43.85330000     -31.23330000     -75.22470000
H      -42.21200000     -31.53660000     -74.60320000
S      -42.30400000     -32.61860000     -68.95620000
S      -43.52570000     -33.51760000     -74.41830000
C      -44.09230000     -33.09240000     -68.83950000
H      -44.27110000     -33.65090000     -67.89660000
H      -44.73490000     -32.18930000     -68.74290000
C      -45.20110000     -33.69520000     -73.74080000
H      -45.90710000     -33.62290000     -74.52750000
H      -45.40810000     -32.91180000     -73.01000000
C      -45.24750000     -35.06810000     -72.98530000
H      -45.03470000     -35.85040000     -73.74350000
H      -44.51830000     -35.05590000     -72.18360000
C      -44.56890000     -33.85620000     -70.05160000
H      -43.83340000     -34.61710000     -70.38820000
H      -44.65010000     -33.21870000     -70.94270000
C      -45.95620000     -34.57190000     -69.83840000
C      -46.65640000     -34.62570000     -68.61030000
C      -46.78120000     -34.92070000     -70.96460000
H      -46.23720000     -34.48480000     -67.60550000
C      -48.07490000     -35.31730000     -70.60120000
C      -46.53800000     -35.25820000     -72.31310000
C      -47.62310000     -35.77570000     -72.98030000
S      -48.32250000     -35.29610000     -68.84630000
S      -49.03030000     -35.96200000     -71.94670000
H      -47.84040000     -35.81710000     -74.00070000
