40
Properties=species:S:1:pos:R:3 #=T CELL(abcABC):=T 1.889726e+02=T 90.00000=T Traj:=T positionsangstrom=T Step:=T 0=T Bead:=T pbc="F F F"
C      -47.77200000     -31.72990000     -73.53560000
C      -48.10500000     -31.33530000     -72.21350000
C      -48.53670000     -32.27990000     -71.26150000
C      -48.62250000     -33.65990000     -71.61840000
C      -48.39370000     -34.02600000     -72.92570000
C      -47.96410000     -33.10840000     -73.88590000
H      -47.38860000     -31.03530000     -74.25560000
H      -48.79720000     -31.92800000     -70.30950000
H      -48.56060000     -35.00230000     -73.27330000
H      -47.90540000     -33.35390000     -74.94470000
C      -48.91480000     -34.57650000     -70.47230000
H      -50.01050000     -34.86620000     -70.59110000
H      -48.79640000     -34.18070000     -69.41140000
C      -47.84720000     -29.91590000     -71.76950000
H      -48.26250000     -29.08020000     -72.26270000
H      -48.12680000     -29.71420000     -70.64160000
S      -47.92200000     -36.18150000     -70.69580000
S      -45.97350000     -29.51060000     -71.91910000
C      -46.16430000     -35.67910000     -71.03100000
H      -45.63750000     -36.65560000     -71.10160000
H      -45.97780000     -35.28070000     -72.07030000
C      -45.18110000     -30.97310000     -71.16900000
H      -45.83460000     -31.40700000     -70.31270000
H      -44.25210000     -30.66940000     -70.66880000
C      -44.80460000     -32.15120000     -72.14350000
H      -45.61930000     -32.91480000     -72.10870000
H      -44.65590000     -31.76210000     -73.10120000
C      -45.58490000     -34.81310000     -69.93440000
H      -45.92260000     -35.16130000     -69.01080000
H      -46.06540000     -33.76060000     -69.94730000
C      -44.11350000     -34.89060000     -70.04950000
C      -43.36070000     -35.76200000     -69.30850000
C      -43.31280000     -33.94560000     -70.80220000
H      -43.64200000     -36.63350000     -68.81450000
C      -41.93690000     -34.22840000     -70.58520000
C      -43.51150000     -32.90270000     -71.82610000
C      -42.30230000     -32.55650000     -72.38880000
S      -41.62440000     -35.57510000     -69.53570000
S      -40.93200000     -33.31470000     -71.64300000
H      -42.15270000     -31.72870000     -72.99460000
