40
Properties=species:S:1:pos:R:3 #=T CELL(abcABC):=T 1.889726e+02=T 90.00000=T Traj:=T positionsangstrom=T Step:=T 0=T Bead:=T pbc="F F F"
C      -48.45680000     -31.10020000     -72.82440000
C      -48.00740000     -31.11820000     -71.51030000
C      -48.11240000     -32.24940000     -70.74630000
C      -48.74290000     -33.40810000     -71.26350000
C      -49.37280000     -33.25710000     -72.52280000
C      -49.24200000     -32.11980000     -73.29280000
H      -48.23530000     -30.22120000     -73.45090000
H      -47.72460000     -32.17420000     -69.74160000
H      -50.04170000     -34.00210000     -72.84020000
H      -49.60410000     -32.15300000     -74.30860000
C      -48.94760000     -34.59630000     -70.40350000
H      -50.02530000     -34.93500000     -70.36920000
H      -48.64090000     -34.38970000     -69.37880000
C      -47.14910000     -29.96330000     -71.04580000
H      -47.64950000     -29.06360000     -71.07030000
H      -46.98210000     -30.10940000     -69.91980000
S      -47.95030000     -36.03350000     -71.03750000
S      -45.68210000     -29.59340000     -72.04450000
C      -46.40090000     -35.05720000     -71.39290000
H      -45.72100000     -35.76550000     -71.92870000
H      -46.68030000     -34.20000000     -72.02250000
C      -44.45170000     -30.80920000     -71.56660000
H      -44.42340000     -31.00510000     -70.48010000
H      -43.41190000     -30.43290000     -71.74430000
C      -44.52800000     -32.21000000     -72.20690000
H      -45.37190000     -32.81870000     -71.81260000
H      -44.63990000     -32.10870000     -73.32720000
C      -45.64190000     -34.65520000     -70.10750000
H      -45.97750000     -35.30480000     -69.23470000
H      -45.74000000     -33.60630000     -69.85050000
C      -44.16830000     -34.90890000     -70.15170000
C      -43.54560000     -35.84540000     -69.40900000
C      -43.17120000     -34.18730000     -71.02340000
H      -44.07310000     -36.44470000     -68.73080000
C      -41.91310000     -34.72980000     -70.85560000
C      -43.26260000     -33.08260000     -71.92330000
C      -42.03230000     -32.81290000     -72.47820000
S      -41.78070000     -36.02530000     -69.66990000
S      -40.79670000     -33.97720000     -71.94260000
H      -41.81540000     -31.95250000     -73.11790000
