40
Properties=species:S:1:pos:R:3 #=T CELL(abcABC):=T 1.889726e+02=T 90.00000=T Traj:=T positionsangstrom=T Step:=T 0=T Bead:=T pbc="F F F"
C      -48.37980000     -31.19230000     -72.87650000
C      -48.11060000     -31.07100000     -71.51030000
C      -48.46100000     -32.14960000     -70.70170000
C      -48.92580000     -33.32830000     -71.32040000
C      -49.15980000     -33.40670000     -72.71300000
C      -48.82160000     -32.32410000     -73.51840000
H      -48.05630000     -30.29350000     -73.42820000
H      -48.31180000     -32.18140000     -69.71490000
H      -49.56830000     -34.24810000     -73.14090000
H      -49.03500000     -32.39260000     -74.61020000
C      -49.18430000     -34.54070000     -70.46680000
H      -50.15070000     -34.97960000     -70.64870000
H      -49.08370000     -34.32180000     -69.38590000
C      -47.31910000     -29.93110000     -71.00110000
H      -47.79580000     -28.97660000     -71.09680000
H      -46.82890000     -30.09280000     -69.88860000
S      -48.00020000     -35.89910000     -70.91530000
S      -45.70880000     -29.67800000     -72.08500000
C      -46.24630000     -35.33410000     -71.20020000
H      -45.79450000     -36.18280000     -71.60630000
H      -46.17850000     -34.65000000     -72.10210000
C      -44.51460000     -30.92180000     -71.39070000
H      -44.93720000     -31.19490000     -70.44140000
H      -43.57710000     -30.42430000     -71.24690000
C      -44.38900000     -32.09980000     -72.35760000
H      -45.35290000     -32.60670000     -72.41540000
H      -44.16930000     -31.75760000     -73.34460000
C      -45.59900000     -34.65250000     -69.98690000
H      -46.07670000     -35.10540000     -69.18000000
H      -45.87050000     -33.56650000     -69.95290000
C      -44.11190000     -34.73720000     -69.99740000
C      -43.48360000     -35.74190000     -69.32410000
C      -43.15860000     -34.11900000     -71.02500000
H      -43.90960000     -36.16420000     -68.45990000
C      -41.88990000     -34.68210000     -70.85360000
C      -43.22640000     -33.06770000     -71.97050000
C      -42.02120000     -32.91120000     -72.63200000
S      -41.80140000     -35.95190000     -69.63430000
S      -40.76530000     -34.04140000     -71.99150000
H      -41.67700000     -32.22690000     -73.39280000
