40
Properties=species:S:1:pos:R:3 #=T CELL(abcABC):=T 1.889726e+02=T 90.00000=T Traj:=T positionsangstrom=T Step:=T 0=T Bead:=T pbc="F F F"
C      -49.05180000     -30.61360000     -72.11470000
C      -48.03350000     -30.97550000     -71.17470000
C      -47.98500000     -32.24060000     -70.61930000
C      -48.92330000     -33.21870000     -71.03530000
C      -49.86240000     -32.87270000     -72.00340000
C      -49.98220000     -31.57030000     -72.40740000
H      -49.14100000     -29.62280000     -72.48040000
H      -47.32940000     -32.39790000     -69.74370000
H      -50.64410000     -33.63410000     -72.21080000
H      -50.83050000     -31.39940000     -73.02170000
C      -48.79210000     -34.62750000     -70.45340000
H      -49.75610000     -35.07890000     -70.37070000
H      -48.29530000     -34.58720000     -69.46070000
C      -46.98940000     -29.97560000     -70.78530000
H      -47.49510000     -28.98380000     -70.50140000
H      -46.42450000     -30.28410000     -69.95390000
S      -47.89560000     -35.89400000     -71.50670000
S      -45.92630000     -29.64920000     -72.29400000
C      -46.10900000     -35.31070000     -71.51450000
H      -45.61790000     -36.08000000     -72.08990000
H      -46.06850000     -34.32640000     -72.15040000
C      -44.44260000     -30.70040000     -71.91540000
H      -43.88950000     -30.29570000     -71.05630000
H      -43.78210000     -30.37940000     -72.77440000
C      -44.53860000     -32.21320000     -71.83880000
H      -45.39060000     -32.45570000     -71.22470000
H      -44.87740000     -32.51640000     -72.83620000
C      -45.41470000     -35.23380000     -70.15800000
H      -45.80720000     -36.03290000     -69.50190000
H      -45.73220000     -34.27900000     -69.67820000
C      -43.95540000     -35.41050000     -70.28320000
C      -43.28240000     -36.56870000     -70.06920000
C      -43.09240000     -34.32880000     -70.90810000
H      -43.66450000     -37.52120000     -69.75450000
C      -41.78450000     -34.76930000     -70.93930000
C      -43.26630000     -33.00990000     -71.49550000
C      -42.07290000     -32.55460000     -71.93270000
S      -41.55400000     -36.41210000     -70.43350000
S      -40.68080000     -33.61640000     -71.67890000
H      -41.73770000     -31.65320000     -72.41070000
