40
Properties=species:S:1:pos:R:3 #=T CELL(abcABC):=T 1.889726e+02=T 90.00000=T Traj:=T positionsangstrom=T Step:=T 0=T Bead:=T pbc="F F F"
C      -44.61550000     -30.83390000     -74.25680000
C      -45.11220000     -31.65440000     -73.21980000
C      -44.76030000     -33.00930000     -73.19550000
C      -43.89110000     -33.58500000     -74.09640000
C      -43.35280000     -32.69940000     -75.11630000
C      -43.78910000     -31.41530000     -75.22860000
H      -44.86660000     -29.73870000     -74.28550000
H      -45.14050000     -33.64710000     -72.43380000
H      -42.61450000     -33.13850000     -75.77120000
H      -43.26660000     -30.82320000     -75.98810000
C      -43.40480000     -35.02020000     -74.11950000
H      -42.56180000     -34.98610000     -74.81640000
H      -44.21030000     -35.72620000     -74.36490000
C      -46.00360000     -31.16820000     -72.14480000
H      -46.69690000     -30.43800000     -72.52460000
H      -46.52340000     -32.08420000     -71.70010000
S      -42.44870000     -35.76370000     -72.62620000
S      -45.06450000     -30.16000000     -70.83780000
C      -43.78260000     -36.51800000     -71.56410000
H      -44.57150000     -36.60090000     -72.17350000
H      -43.44260000     -37.49690000     -71.22770000
C      -43.87400000     -31.50680000     -70.36070000
H      -42.90300000     -30.95570000     -70.19250000
H      -43.75720000     -32.25990000     -71.19910000
C      -44.26150000     -32.20710000     -69.07860000
H      -43.43650000     -32.95830000     -68.83590000
H      -44.25860000     -31.46280000     -68.35640000
C      -44.18660000     -35.52400000     -70.48510000
H      -43.80650000     -34.52750000     -70.82020000
H      -43.58850000     -35.72730000     -69.50350000
C      -45.63640000     -35.24410000     -70.18600000
C      -46.68350000     -36.07790000     -70.61480000
C      -46.12670000     -34.03350000     -69.59070000
H      -46.51070000     -37.02930000     -71.09490000
C      -47.58160000     -34.05910000     -69.45650000
C      -45.69450000     -32.75470000     -69.11030000
C      -46.68790000     -32.00500000     -68.48880000
S      -48.28470000     -35.46200000     -70.21840000
S      -48.23750000     -32.72930000     -68.60650000
H      -46.57690000     -31.06990000     -67.97100000
