40
Properties=species:S:1:pos:R:3 #=T CELL(abcABC):=T 1.889726e+02=T 90.00000=T Traj:=T positionsangstrom=T Step:=T 0=T Bead:=T pbc="F F F"
C      -49.17260000     -30.76100000     -72.02090000
C      -48.06200000     -31.06900000     -71.23530000
C      -47.97930000     -32.42030000     -70.67510000
C      -48.98700000     -33.34210000     -70.93010000
C      -50.10470000     -32.96540000     -71.72230000
C      -50.20610000     -31.64780000     -72.19770000
H      -49.19640000     -29.76730000     -72.44150000
H      -47.21110000     -32.75200000     -70.06740000
H      -50.81140000     -33.73720000     -72.02960000
H      -51.06330000     -31.40930000     -72.84060000
C      -48.88000000     -34.75090000     -70.40800000
H      -49.83680000     -35.25230000     -70.24330000
H      -48.26200000     -34.72240000     -69.45440000
C      -46.97570000     -30.06590000     -70.94290000
H      -47.41240000     -29.06430000     -70.76370000
H      -46.42230000     -30.26390000     -70.13690000
S      -47.93440000     -35.83680000     -71.65250000
S      -45.77230000     -29.80660000     -72.30510000
C      -46.20530000     -35.19670000     -71.56710000
H      -45.56730000     -35.58790000     -72.32610000
H      -46.31670000     -34.09410000     -71.66390000
C      -44.18810000     -30.63540000     -71.70750000
H      -43.86410000     -30.24000000     -70.76980000
H      -43.34580000     -30.36460000     -72.42150000
C      -44.42700000     -32.09660000     -71.52520000
H      -44.92290000     -32.19990000     -70.49590000
H      -45.09810000     -32.60440000     -72.18160000
C      -45.48610000     -35.26210000     -70.16410000
H      -45.78530000     -36.06860000     -69.52620000
H      -45.68570000     -34.38510000     -69.58590000
C      -43.99870000     -35.33200000     -70.38230000
C      -43.28320000     -36.44930000     -70.09490000
C      -43.12170000     -34.30830000     -71.07770000
H      -43.66800000     -37.38100000     -69.67550000
C      -41.73980000     -34.77070000     -71.19610000
C      -43.14320000     -32.90680000     -71.42500000
C      -41.94620000     -32.32770000     -71.69430000
S      -41.62630000     -36.38040000     -70.60510000
S      -40.61000000     -33.51390000     -71.68350000
H      -41.71820000     -31.35830000     -72.11620000
