40
Properties=species:S:1:pos:R:3 #=T CELL(abcABC):=T 1.889726e+02=T 90.00000=T Traj:=T positionsangstrom=T Step:=T 0=T Bead:=T pbc="F F F"
C      -49.00340000     -30.64570000     -72.13200000
C      -47.95940000     -30.86820000     -71.22250000
C      -47.96410000     -32.09200000     -70.50570000
C      -48.78420000     -33.17540000     -70.94970000
C      -49.62460000     -32.94720000     -72.08710000
C      -49.79280000     -31.67090000     -72.65320000
H      -49.11910000     -29.65640000     -72.59180000
H      -47.16910000     -32.30510000     -69.73120000
H      -50.27540000     -33.70190000     -72.60090000
H      -50.54240000     -31.42690000     -73.34940000
C      -48.71180000     -34.56640000     -70.32210000
H      -49.70800000     -34.90160000     -69.97210000
H      -48.14540000     -34.54050000     -69.38100000
C      -47.00230000     -29.82370000     -70.89210000
H      -47.48050000     -28.84620000     -70.86110000
H      -46.34220000     -30.04750000     -69.97210000
S      -48.07210000     -35.88850000     -71.43780000
S      -45.78350000     -29.75830000     -72.27990000
C      -46.21440000     -35.42840000     -71.65550000
H      -45.78030000     -36.20110000     -72.26830000
H      -46.09190000     -34.58930000     -72.29780000
C      -44.32250000     -30.84460000     -71.89260000
H      -43.83100000     -30.44720000     -70.96130000
H      -43.72900000     -30.73660000     -72.69780000
C      -44.59640000     -32.32600000     -71.72290000
H      -45.13260000     -32.41920000     -70.83520000
H      -45.21980000     -32.75080000     -72.57810000
C      -45.51590000     -35.21010000     -70.37040000
H      -45.89180000     -35.99670000     -69.69140000
H      -45.83450000     -34.29540000     -69.85610000
C      -44.02420000     -35.32600000     -70.37130000
C      -43.32970000     -36.41860000     -69.90360000
C      -43.11170000     -34.35280000     -71.01470000
H      -43.68130000     -37.27980000     -69.39480000
C      -41.82700000     -34.79540000     -70.96830000
C      -43.29350000     -33.08730000     -71.64840000
C      -42.12770000     -32.63320000     -72.16680000
S      -41.65150000     -36.28160000     -70.17170000
S      -40.71190000     -33.62730000     -71.70160000
H      -41.78550000     -31.68450000     -72.52520000
