40
Properties=species:S:1:pos:R:3 #=T CELL(abcABC):=T 1.889726e+02=T 90.00000=T Traj:=T positionsangstrom=T Step:=T 0=T Bead:=T pbc="F F F"
C      -46.14590000     -33.47930000     -67.47240000
C      -46.26200000     -33.15410000     -68.84470000
C      -45.58250000     -33.99710000     -69.75010000
C      -44.72500000     -35.09730000     -69.33690000
C      -44.68290000     -35.35490000     -67.93860000
C      -45.33250000     -34.52180000     -67.01910000
H      -46.76110000     -32.90130000     -66.75060000
H      -45.83910000     -33.86790000     -70.87840000
H      -44.05810000     -36.17390000     -67.59660000
H      -45.33820000     -34.79510000     -65.91400000
C      -44.20590000     -35.94490000     -70.43000000
H      -44.74780000     -35.81010000     -71.36650000
H      -44.19210000     -37.00950000     -70.25640000
C      -47.14910000     -32.05760000     -69.39060000
H      -47.45610000     -32.22490000     -70.45630000
H      -48.03300000     -31.80950000     -68.70100000
S      -42.45410000     -35.53780000     -70.89160000
S      -46.27140000     -30.37660000     -69.51470000
C      -42.39090000     -33.71820000     -71.19370000
H      -43.04250000     -33.35480000     -70.37950000
H      -41.36750000     -33.44900000     -70.95700000
C      -44.81230000     -30.67620000     -70.63550000
H      -44.37360000     -31.66110000     -70.25280000
H      -44.12350000     -29.90670000     -70.34970000
C      -45.20390000     -30.53360000     -72.09510000
H      -45.78940000     -29.57930000     -72.12440000
H      -44.21030000     -30.32890000     -72.56640000
C      -42.90330000     -33.09840000     -72.53620000
H      -42.06820000     -33.28630000     -73.28710000
H      -43.10760000     -32.01950000     -72.36300000
C      -44.14270000     -33.63010000     -73.08820000
C      -44.20590000     -34.82640000     -73.82190000
C      -45.42090000     -32.90420000     -73.10610000
H      -43.41870000     -35.54240000     -73.87660000
C      -46.41920000     -33.74400000     -73.50600000
C      -45.93470000     -31.61900000     -72.71240000
C      -47.27290000     -31.52270000     -73.00020000
S      -45.87230000     -35.26470000     -74.19310000
S      -47.96170000     -32.92520000     -73.79500000
H      -47.86670000     -30.57440000     -72.96450000
