40
Properties=species:S:1:pos:R:3 #=T CELL(abcABC):=T 1.889726e+02=T 90.00000=T Traj:=T positionsangstrom=T Step:=T 0=T Bead:=T pbc="F F F"
C      -46.26840000     -33.13450000     -67.47570000
C      -46.44140000     -32.87810000     -68.85590000
C      -45.90910000     -33.80090000     -69.83970000
C      -45.18240000     -34.92110000     -69.41250000
C      -45.08060000     -35.24760000     -68.05870000
C      -45.60520000     -34.36860000     -67.09400000
H      -46.69350000     -32.48960000     -66.71050000
H      -46.33240000     -33.67250000     -70.85150000
H      -44.54140000     -36.17840000     -67.81000000
H      -45.49170000     -34.69580000     -66.04460000
C      -44.47660000     -35.89160000     -70.44740000
H      -45.02060000     -35.99040000     -71.41080000
H      -44.56690000     -36.92540000     -70.08450000
C      -47.14650000     -31.63360000     -69.37470000
H      -47.46480000     -31.68730000     -70.39450000
H      -47.90980000     -31.17450000     -68.72960000
S      -42.68160000     -35.44920000     -70.81590000
S      -45.81250000     -30.32500000     -69.31950000
C      -42.60340000     -33.67540000     -71.10510000
H      -43.46980000     -33.17350000     -70.65680000
H      -41.58920000     -33.37340000     -70.82990000
C      -44.66470000     -30.70130000     -70.64790000
H      -44.30130000     -31.74740000     -70.49070000
H      -43.77230000     -30.10730000     -70.35850000
C      -44.94930000     -30.63240000     -72.14610000
H      -45.49660000     -29.81690000     -72.54930000
H      -43.98090000     -30.53000000     -72.63320000
C      -42.74510000     -33.37980000     -72.66570000
H      -41.92310000     -33.72560000     -73.28090000
H      -42.75130000     -32.29380000     -72.75230000
C      -44.04760000     -33.86550000     -73.22240000
C      -44.14220000     -35.03220000     -73.94790000
C      -45.31760000     -33.16650000     -73.10720000
H      -43.28730000     -35.55670000     -74.35920000
C      -46.37400000     -33.83880000     -73.65480000
C      -45.75820000     -31.86260000     -72.62110000
C      -47.12880000     -31.72700000     -72.77390000
S      -45.79580000     -35.20790000     -74.55520000
S      -47.86080000     -33.17910000     -73.44180000
H      -47.71300000     -30.80470000     -72.60190000
