40
Properties=species:S:1:pos:R:3 #=T CELL(abcABC):=T 1.889726e+02=T 90.00000=T Traj:=T positionsangstrom=T Step:=T 0=T Bead:=T pbc="F F F"
C      -45.96710000     -33.38450000     -67.57370000
C      -46.21030000     -33.29590000     -68.93350000
C      -45.63690000     -34.24050000     -69.79250000
C      -44.64760000     -35.14300000     -69.33460000
C      -44.42050000     -35.20110000     -67.97040000
C      -45.13110000     -34.31560000     -67.11870000
H      -46.50620000     -32.68020000     -66.86960000
H      -45.82710000     -34.06450000     -70.89120000
H      -43.74500000     -35.97170000     -67.62200000
H      -45.01330000     -34.38700000     -66.03100000
C      -43.87660000     -36.09420000     -70.15260000
H      -44.64320000     -36.60690000     -70.86090000
H      -43.49540000     -36.88890000     -69.57800000
C      -47.15670000     -32.27530000     -69.58820000
H      -47.49690000     -32.52740000     -70.52180000
H      -48.02470000     -32.25190000     -68.91740000
S      -42.35880000     -35.39810000     -70.81350000
S      -46.42370000     -30.54500000     -69.48920000
C      -42.66830000     -33.62290000     -70.97870000
H      -43.44840000     -33.23350000     -70.23960000
H      -41.73720000     -33.21130000     -70.66320000
C      -44.90300000     -30.68770000     -70.53490000
H      -44.39150000     -31.60180000     -70.32080000
H      -44.26270000     -29.86520000     -70.26760000
C      -45.01790000     -30.57220000     -72.09580000
H      -45.45960000     -29.62950000     -72.36450000
H      -44.04900000     -30.64840000     -72.54050000
C      -42.94850000     -33.23250000     -72.44630000
H      -42.16390000     -33.64340000     -73.03850000
H      -42.89340000     -32.12210000     -72.55730000
C      -44.25930000     -33.70210000     -73.03960000
C      -44.40850000     -34.98660000     -73.55350000
C      -45.46800000     -32.89800000     -73.24890000
H      -43.64340000     -35.76880000     -73.57980000
C      -46.46920000     -33.62700000     -73.84730000
C      -45.92190000     -31.58830000     -72.78810000
C      -47.27080000     -31.45110000     -72.93690000
S      -45.95650000     -35.15090000     -74.32810000
S      -48.00650000     -32.79790000     -73.79420000
H      -47.96990000     -30.72130000     -72.52720000
