40
Properties=species:S:1:pos:R:3 #=T CELL(abcABC):=T 1.889726e+02=T 90.00000=T Traj:=T positionsangstrom=T Step:=T 0=T Bead:=T pbc="F F F"
C      -46.29950000     -36.94740000     -71.96550000
C      -46.20680000     -36.56580000     -70.62420000
C      -47.07260000     -35.54370000     -70.16920000
C      -47.76010000     -34.71540000     -71.09170000
C      -47.54020000     -34.94780000     -72.45840000
C      -46.96450000     -36.14960000     -72.85630000
H      -45.82290000     -37.90490000     -72.13230000
H      -47.08350000     -35.35530000     -69.08110000
H      -47.98630000     -34.39110000     -73.26330000
H      -46.87800000     -36.30140000     -73.93270000
C      -48.44070000     -33.48170000     -70.65590000
H      -48.96800000     -33.64950000     -69.65330000
H      -49.24660000     -33.15360000     -71.34670000
C      -45.28090000     -37.22610000     -69.63380000
H      -45.54350000     -36.75760000     -68.64250000
H      -45.43890000     -38.29370000     -69.60960000
S      -47.45510000     -31.93840000     -70.35560000
S      -43.46290000     -36.94540000     -70.04340000
C      -46.40130000     -32.36840000     -68.92410000
H      -46.98470000     -32.09800000     -68.02670000
H      -46.22790000     -33.40140000     -68.89100000
C      -43.47460000     -35.60330000     -71.36340000
H      -43.97630000     -35.87060000     -72.33740000
H      -42.42210000     -35.38590000     -71.68490000
C      -44.07510000     -34.27410000     -70.92220000
H      -45.14260000     -34.34590000     -70.72820000
H      -43.67640000     -33.87240000     -69.97830000
C      -45.07650000     -31.57010000     -69.08470000
H      -44.29660000     -32.27530000     -68.71970000
H      -45.04960000     -30.86440000     -68.32180000
C      -44.75410000     -31.11660000     -70.41830000
C      -45.07120000     -29.75540000     -70.68850000
C      -44.27370000     -31.79370000     -71.60520000
H      -45.53670000     -29.00770000     -70.02260000
C      -44.18000000     -30.87150000     -72.65910000
C      -43.92850000     -33.17410000     -71.93770000
C      -43.36600000     -33.28970000     -73.23030000
S      -44.82700000     -29.27920000     -72.32400000
S      -43.50470000     -31.65870000     -74.05050000
H      -42.94300000     -34.22950000     -73.67550000
