40
Properties=species:S:1:pos:R:3 #=T CELL(abcABC):=T 1.889726e+02=T 90.00000=T Traj:=T positionsangstrom=T Step:=T 0=T Bead:=T pbc="F F F"
C      -46.03220000     -33.52960000     -67.73200000
C      -46.47220000     -33.81110000     -69.00080000
C      -45.76570000     -34.79020000     -69.75950000
C      -44.56920000     -35.33600000     -69.34860000
C      -44.09580000     -34.96070000     -68.09600000
C      -44.89930000     -34.17820000     -67.21670000
H      -46.58830000     -32.84230000     -67.11550000
H      -46.10650000     -35.24720000     -70.62040000
H      -43.14590000     -35.33480000     -67.66020000
H      -44.54730000     -33.87280000     -66.26510000
C      -43.68200000     -36.05020000     -70.28370000
H      -44.33290000     -36.26950000     -71.11380000
H      -43.30930000     -37.03670000     -69.81550000
C      -47.53890000     -33.01120000     -69.68010000
H      -47.93020000     -33.30930000     -70.70160000
H      -48.48950000     -33.03600000     -69.13630000
S      -42.17470000     -35.12770000     -70.66390000
S      -47.16110000     -31.21850000     -69.78300000
C      -42.56960000     -33.35130000     -70.74720000
H      -43.43270000     -33.26280000     -70.09900000
H      -41.72540000     -32.80460000     -70.32490000
C      -45.43180000     -31.09580000     -70.27380000
H      -45.03840000     -32.13230000     -70.38390000
H      -44.79380000     -30.52800000     -69.47960000
C      -45.27970000     -30.51650000     -71.64870000
H      -45.81360000     -29.59500000     -71.70550000
H      -44.20540000     -30.37310000     -71.81050000
C      -42.87610000     -32.88040000     -72.15440000
H      -41.91560000     -33.16900000     -72.72330000
H      -42.95550000     -31.81640000     -72.32250000
C      -44.12350000     -33.43180000     -72.80260000
C      -44.12830000     -34.66250000     -73.42740000
C      -45.36520000     -32.74750000     -73.02700000
H      -43.29310000     -35.39340000     -73.39830000
C      -46.28230000     -33.37770000     -73.88300000
C      -45.87990000     -31.43860000     -72.65870000
C      -47.19890000     -31.26430000     -73.04760000
S      -45.63280000     -34.95260000     -74.28910000
S      -47.82990000     -32.53360000     -74.17200000
H      -47.74190000     -30.32000000     -73.01540000
