40
Properties=species:S:1:pos:R:3 #=T CELL(abcABC):=T 1.889726e+02=T 90.00000=T Traj:=T positionsangstrom=T Step:=T 0=T Bead:=T pbc="F F F"
C      -45.97100000     -33.36890000     -67.77490000
C      -46.37890000     -33.70600000     -69.11910000
C      -45.66870000     -34.62730000     -69.83370000
C      -44.47810000     -35.13030000     -69.25770000
C      -44.15290000     -34.85740000     -67.92580000
C      -44.94670000     -33.98420000     -67.15790000
H      -46.49670000     -32.58800000     -67.18160000
H      -45.97160000     -34.69160000     -70.86360000
H      -43.31030000     -35.30630000     -67.54780000
H      -44.66040000     -33.96720000     -66.14510000
C      -43.73760000     -36.15570000     -70.09200000
H      -44.34450000     -36.36800000     -70.96620000
H      -43.37620000     -37.00060000     -69.46590000
C      -47.63240000     -32.97750000     -69.63010000
H      -47.78520000     -33.52360000     -70.55110000
H      -48.51260000     -33.08180000     -68.99660000
S      -42.10480000     -35.38890000     -70.77590000
S      -47.21770000     -31.15290000     -69.72530000
C      -42.55650000     -33.56690000     -70.87190000
H      -43.39740000     -33.41190000     -70.18980000
H      -41.68860000     -32.96630000     -70.53240000
C      -45.41850000     -31.01590000     -70.18500000
H      -44.96940000     -31.97990000     -70.06380000
H      -44.90710000     -30.36100000     -69.51360000
C      -45.14530000     -30.52490000     -71.59470000
H      -45.50860000     -29.51540000     -71.74810000
H      -44.06800000     -30.38930000     -71.74780000
C      -42.79070000     -33.10610000     -72.28830000
H      -41.96520000     -33.45760000     -72.91190000
H      -42.80450000     -32.01720000     -72.22000000
C      -44.11530000     -33.52190000     -72.91030000
C      -44.26460000     -34.72370000     -73.51450000
C      -45.32780000     -32.74100000     -73.10810000
H      -43.52570000     -35.48840000     -73.71740000
C      -46.31790000     -33.34420000     -73.88070000
C      -45.78770000     -31.43190000     -72.66040000
C      -47.05740000     -31.20450000     -73.11870000
S      -45.82680000     -34.96820000     -74.27810000
S      -47.83060000     -32.48680000     -74.08870000
H      -47.57300000     -30.30510000     -72.97700000
