40
Properties=species:S:1:pos:R:3 #=T CELL(abcABC):=T 1.889726e+02=T 90.00000=T Traj:=T positionsangstrom=T Step:=T 0=T Bead:=T pbc="F F F"
C      -45.92850000     -33.40840000     -67.67030000
C      -46.32280000     -33.57580000     -68.98950000
C      -45.57360000     -34.50010000     -69.75950000
C      -44.49010000     -35.16170000     -69.25880000
C      -44.05550000     -34.90320000     -67.86650000
C      -44.81030000     -34.04700000     -67.10930000
H      -46.53870000     -32.70850000     -67.08070000
H      -45.84520000     -34.81080000     -70.82650000
H      -43.24900000     -35.32680000     -67.29790000
H      -44.57740000     -33.64880000     -66.10220000
C      -43.71030000     -36.15960000     -69.99590000
H      -44.35320000     -36.65440000     -70.78480000
H      -43.37370000     -36.96310000     -69.42450000
C      -47.41320000     -32.87210000     -69.69510000
H      -47.43390000     -33.25800000     -70.75060000
H      -48.42130000     -32.98750000     -69.19860000
S      -42.15800000     -35.52220000     -70.81220000
S      -47.30160000     -31.01420000     -69.75730000
C      -42.36960000     -33.68490000     -71.09090000
H      -42.96190000     -33.24490000     -70.25700000
H      -41.38350000     -33.29680000     -70.89510000
C      -45.46780000     -30.79000000     -70.12500000
H      -45.01170000     -31.70420000     -69.69900000
H      -45.23450000     -30.00440000     -69.44200000
C      -45.07130000     -30.47400000     -71.64980000
H      -45.45980000     -29.42070000     -71.77730000
H      -43.98700000     -30.34590000     -71.71060000
C      -42.81710000     -33.19140000     -72.50930000
H      -42.10230000     -33.50540000     -73.24570000
H      -42.73490000     -32.06280000     -72.45120000
C      -44.17250000     -33.63740000     -72.97670000
C      -44.33670000     -34.83720000     -73.62380000
C      -45.37780000     -32.83180000     -73.02340000
H      -43.66520000     -35.62480000     -73.84660000
C      -46.41170000     -33.42330000     -73.75720000
C      -45.79460000     -31.46280000     -72.60500000
C      -47.00740000     -31.13710000     -73.11130000
S      -45.94370000     -35.02240000     -74.30930000
S      -47.83800000     -32.41330000     -74.02490000
H      -47.57040000     -30.33590000     -72.68180000
