40
Properties=species:S:1:pos:R:3 #=T CELL(abcABC):=T 1.889726e+02=T 90.00000=T Traj:=T positionsangstrom=T Step:=T 0=T Bead:=T pbc="F F F"
C      -45.83130000     -33.33160000     -67.66820000
C      -46.25560000     -33.55320000     -68.97030000
C      -45.51500000     -34.40800000     -69.74790000
C      -44.47910000     -35.16790000     -69.23530000
C      -44.10890000     -35.02250000     -67.87200000
C      -44.68480000     -33.98770000     -67.18540000
H      -46.16770000     -32.60060000     -66.94670000
H      -45.86000000     -34.53090000     -70.81430000
H      -43.33050000     -35.64840000     -67.38070000
H      -44.15300000     -33.78570000     -66.19550000
C      -43.70320000     -36.14520000     -70.17580000
H      -44.26780000     -36.56100000     -71.02240000
H      -43.51950000     -36.94150000     -69.47640000
C      -47.40550000     -32.80280000     -69.61890000
H      -47.76020000     -33.25740000     -70.52100000
H      -48.27830000     -32.83090000     -68.94220000
S      -42.17550000     -35.45740000     -70.92390000
S      -47.18660000     -30.92970000     -69.72790000
C      -42.52630000     -33.67970000     -71.05180000
H      -43.40420000     -33.39860000     -70.39620000
H      -41.64970000     -33.12170000     -70.72210000
C      -45.37930000     -30.64980000     -70.15050000
H      -44.77500000     -31.50130000     -69.62250000
H      -45.08840000     -29.66800000     -69.68630000
C      -44.96130000     -30.58050000     -71.66840000
H      -45.11190000     -29.59970000     -72.08540000
H      -43.90770000     -30.84910000     -71.78270000
C      -42.92880000     -33.24150000     -72.46610000
H      -42.17990000     -33.53090000     -73.21210000
H      -42.98130000     -32.21070000     -72.59060000
C      -44.24700000     -33.71860000     -72.95230000
C      -44.42970000     -34.94800000     -73.51830000
C      -45.38840000     -32.85410000     -73.09120000
H      -43.79840000     -35.80750000     -73.43240000
C      -46.45020000     -33.44560000     -73.78960000
C      -45.79560000     -31.53970000     -72.60280000
C      -47.04900000     -31.22130000     -73.00130000
S      -46.04380000     -35.06920000     -74.27730000
S      -47.83720000     -32.43400000     -73.99300000
H      -47.51990000     -30.27690000     -72.66960000
