40
Properties=species:S:1:pos:R:3 #=T CELL(abcABC):=T 1.889726e+02=T 90.00000=T Traj:=T positionsangstrom=T Step:=T 0=T Bead:=T pbc="F F F"
C      -44.35160000     -31.04270000     -71.67850000
C      -45.40300000     -31.34860000     -72.54620000
C      -45.36500000     -32.56230000     -73.24770000
C      -44.25340000     -33.41950000     -73.15430000
C      -43.16100000     -33.07100000     -72.31840000
C      -43.17000000     -31.83820000     -71.68040000
H      -44.30590000     -30.05280000     -71.23280000
H      -46.18150000     -32.86690000     -73.92310000
H      -42.24910000     -33.63310000     -72.41860000
H      -42.26860000     -31.46220000     -71.23200000
C      -44.13270000     -34.58740000     -74.15810000
H      -43.37120000     -35.22800000     -73.71500000
H      -43.80390000     -34.16110000     -75.10130000
C      -46.66520000     -30.48270000     -72.59420000
H      -46.36600000     -29.53790000     -73.09270000
H      -47.40870000     -30.90170000     -73.34240000
S      -45.63530000     -35.55200000     -74.47220000
S      -47.40750000     -30.12030000     -70.91770000
C      -45.65830000     -36.75190000     -73.03380000
H      -46.10590000     -37.68400000     -73.35790000
H      -44.64650000     -36.98550000     -72.76960000
C      -48.51890000     -31.68130000     -70.67950000
H      -49.45300000     -31.58730000     -71.16920000
H      -48.73050000     -31.61100000     -69.61550000
C      -47.69760000     -32.97910000     -70.90050000
H      -48.44290000     -33.81080000     -70.68990000
H      -47.54800000     -33.12660000     -71.92690000
C      -46.20580000     -36.18400000     -71.78550000
H      -46.70550000     -36.99090000     -71.23650000
H      -47.02510000     -35.58270000     -72.04820000
C      -45.25770000     -35.44740000     -70.86240000
C      -44.04060000     -36.04040000     -70.55190000
C      -45.55820000     -34.22550000     -70.12590000
H      -43.79890000     -37.06650000     -70.96870000
C      -44.41760000     -33.99750000     -69.34410000
C      -46.41280000     -33.12710000     -70.03850000
C      -46.03750000     -32.21870000     -69.11110000
S      -43.15270000     -35.18950000     -69.30510000
S      -44.44210000     -32.52610000     -68.42400000
H      -46.64730000     -31.38200000     -68.82890000
