40
Properties=species:S:1:pos:R:3 #=T CELL(abcABC):=T 1.889726e+02=T 90.00000=T Traj:=T positionsangstrom=T Step:=T 0=T Bead:=T pbc="F F F"
C      -45.97940000     -34.15000000     -75.15380000
C      -45.98250000     -32.84080000     -74.70360000
C      -44.72440000     -32.18690000     -74.42020000
C      -43.51030000     -32.95260000     -74.28370000
C      -43.62260000     -34.26780000     -74.70630000
C      -44.77810000     -34.85720000     -75.19430000
H      -46.85480000     -34.58460000     -75.57530000
H      -44.76350000     -31.14770000     -74.09990000
H      -42.67100000     -34.81520000     -74.69300000
H      -44.79290000     -35.89220000     -75.49360000
C      -42.20540000     -32.25110000     -73.81700000
H      -42.41410000     -31.14540000     -73.87120000
H      -41.46280000     -32.57900000     -74.54810000
C      -47.32940000     -32.15120000     -74.70610000
H      -47.48410000     -31.67140000     -75.64480000
H      -48.13730000     -32.93770000     -74.62390000
S      -41.58800000     -32.82450000     -72.13030000
S      -47.61600000     -31.09110000     -73.22560000
C      -42.88930000     -33.65390000     -71.15190000
H      -43.59130000     -34.30970000     -71.67660000
H      -42.25210000     -34.33690000     -70.54290000
C      -47.79790000     -32.24360000     -71.77580000
H      -48.71890000     -32.83970000     -71.92110000
H      -47.95780000     -31.56320000     -70.89130000
C      -46.67360000     -33.29180000     -71.57130000
H      -46.74430000     -34.08900000     -72.36230000
H      -45.71950000     -32.88450000     -71.73460000
C      -43.51500000     -32.74550000     -70.09550000
H      -44.16410000     -32.01190000     -70.55410000
H      -42.62160000     -32.26310000     -69.64060000
C      -44.34000000     -33.43740000     -69.03170000
C      -43.84350000     -33.67830000     -67.72870000
C      -45.73480000     -33.79890000     -69.13350000
H      -42.85560000     -33.56500000     -67.28940000
C      -46.25600000     -34.32830000     -67.90720000
C      -46.68260000     -33.98490000     -70.23210000
C      -47.81570000     -34.61860000     -69.73350000
S      -44.98620000     -34.44720000     -66.69740000
S      -47.84630000     -35.05510000     -67.96570000
H      -48.64240000     -34.91190000     -70.34330000
