40
Properties=species:S:1:pos:R:3 #=T CELL(abcABC):=T 1.889726e+02=T 90.00000=T Traj:=T positionsangstrom=T Step:=T 0=T Bead:=T pbc="F F F"
C      -46.26270000     -35.50420000     -75.42150000
C      -46.42700000     -34.21920000     -74.82220000
C      -45.30770000     -33.47030000     -74.50410000
C      -43.98790000     -33.95810000     -74.75530000
C      -43.84680000     -35.16340000     -75.37700000
C      -44.96010000     -35.95490000     -75.66630000
H      -47.09460000     -36.07670000     -75.69400000
H      -45.49180000     -32.51160000     -73.98660000
H      -42.89820000     -35.48330000     -75.76520000
H      -44.84700000     -36.88990000     -76.33510000
C      -42.83950000     -32.95620000     -74.51380000
H      -43.26020000     -31.97950000     -74.55310000
H      -42.02410000     -32.89090000     -75.28020000
C      -47.80820000     -33.81220000     -74.44530000
H      -48.35320000     -33.67660000     -75.28130000
H      -48.27630000     -34.63870000     -73.83490000
S      -41.82660000     -33.03440000     -72.93730000
S      -47.95040000     -32.29860000     -73.34610000
C      -42.87890000     -33.64280000     -71.46310000
H      -43.51240000     -34.56610000     -71.61420000
H      -42.08870000     -34.05470000     -70.79520000
C      -47.41790000     -33.07420000     -71.73680000
H      -46.64220000     -33.81050000     -71.93060000
H      -48.30290000     -33.67350000     -71.31370000
C      -47.03450000     -31.99010000     -70.69540000
H      -46.22140000     -31.38420000     -71.13640000
H      -47.90640000     -31.26870000     -70.74820000
C      -43.70200000     -32.60460000     -70.66630000
H      -44.47800000     -32.23710000     -71.30410000
H      -43.04430000     -31.72660000     -70.50770000
C      -44.12940000     -32.98930000     -69.30290000
C      -43.32130000     -33.50640000     -68.31550000
C      -45.44200000     -32.75930000     -68.72660000
H      -42.27670000     -33.69090000     -68.48870000
C      -45.61660000     -33.23050000     -67.39770000
C      -46.71400000     -32.48870000     -69.29110000
C      -47.80580000     -32.68300000     -68.45760000
S      -44.15910000     -33.80360000     -66.78340000
S      -47.30010000     -33.14580000     -66.81890000
H      -48.88410000     -32.50870000     -68.64610000
