40
Properties=species:S:1:pos:R:3 #=T CELL(abcABC):=T 1.889726e+02=T 90.00000=T Traj:=T positionsangstrom=T Step:=T 0=T Bead:=T pbc="F F F"
C      -45.85300000     -35.54380000     -75.24740000
C      -46.30930000     -34.30220000     -74.76380000
C      -45.31460000     -33.35700000     -74.44410000
C      -43.94190000     -33.65710000     -74.62160000
C      -43.56570000     -34.96960000     -74.99390000
C      -44.51920000     -35.88300000     -75.42920000
H      -46.68570000     -36.22570000     -75.61790000
H      -45.51610000     -32.43530000     -73.90310000
H      -42.45680000     -35.18850000     -75.11950000
H      -44.25150000     -36.85220000     -75.80280000
C      -42.85290000     -32.69990000     -74.27010000
H      -43.24800000     -31.66020000     -74.08130000
H      -42.24460000     -32.70320000     -75.12860000
C      -47.71540000     -34.15310000     -74.40310000
H      -48.42060000     -33.96680000     -75.32410000
H      -47.98010000     -35.06370000     -73.92550000
S      -41.80570000     -33.24000000     -72.81380000
S      -48.20210000     -32.76080000     -73.31330000
C      -43.19070000     -33.69120000     -71.66650000
H      -43.78610000     -34.22270000     -72.43550000
H      -42.88610000     -34.53570000     -71.00660000
C      -47.45190000     -33.20040000     -71.71480000
H      -46.38620000     -33.59930000     -71.68540000
H      -47.98600000     -33.95020000     -71.19060000
C      -47.42900000     -32.00900000     -70.72350000
H      -46.76440000     -31.20610000     -71.19630000
H      -48.45410000     -31.61780000     -70.64280000
C      -43.87080000     -32.51420000     -70.93750000
H      -44.69990000     -32.14120000     -71.62580000
H      -43.14940000     -31.73100000     -70.82900000
C      -44.30420000     -32.89140000     -69.56520000
C      -43.38760000     -33.34170000     -68.63370000
C      -45.61040000     -32.82800000     -68.93920000
H      -42.29560000     -33.28140000     -68.66270000
C      -45.56050000     -33.12590000     -67.58750000
C      -46.93290000     -32.44440000     -69.31200000
C      -47.82900000     -32.56890000     -68.27170000
S      -44.03750000     -33.62240000     -67.03340000
S      -47.12510000     -32.97880000     -66.76110000
H      -48.85750000     -32.36980000     -68.29320000
