40
Properties=species:S:1:pos:R:3 #=T CELL(abcABC):=T 1.889726e+02=T 90.00000=T Traj:=T positionsangstrom=T Step:=T 0=T Bead:=T pbc="F F F"
C      -45.68540000     -35.69820000     -74.90560000
C      -46.20860000     -34.43480000     -74.55730000
C      -45.30610000     -33.37480000     -74.42240000
C      -43.95400000     -33.61980000     -74.61730000
C      -43.49620000     -34.79930000     -75.14820000
C      -44.34980000     -35.87400000     -75.19790000
H      -46.35210000     -36.56410000     -74.79310000
H      -45.58860000     -32.39520000     -74.15820000
H      -42.43860000     -34.92750000     -75.37030000
H      -43.97450000     -36.79570000     -75.43130000
C      -42.98410000     -32.56230000     -74.21240000
H      -43.32730000     -31.68840000     -73.67140000
H      -42.38660000     -32.08860000     -74.99380000
C      -47.71720000     -34.21340000     -74.51010000
H      -48.05720000     -33.94610000     -75.47560000
H      -48.28370000     -35.11850000     -74.25130000
S      -41.91520000     -33.30010000     -72.83470000
S      -48.23310000     -32.84210000     -73.38580000
C      -43.11990000     -33.74330000     -71.53800000
H      -43.80030000     -34.51210000     -71.90780000
H      -42.53830000     -34.19480000     -70.70840000
C      -47.55970000     -33.37310000     -71.70810000
H      -46.55670000     -33.82120000     -71.82890000
H      -48.13810000     -34.24970000     -71.26710000
C      -47.43620000     -32.11420000     -70.84410000
H      -46.82750000     -31.38200000     -71.29970000
H      -48.36020000     -31.62060000     -70.69610000
C      -44.00170000     -32.55490000     -70.99780000
H      -44.92330000     -32.33160000     -71.56100000
H      -43.31370000     -31.69540000     -71.03870000
C      -44.28180000     -32.85550000     -69.57090000
C      -43.34430000     -33.27920000     -68.68130000
C      -45.59410000     -32.73350000     -68.95960000
H      -42.29480000     -33.28550000     -68.86600000
C      -45.56060000     -32.97660000     -67.58560000
C      -46.94930000     -32.40070000     -69.38600000
C      -47.89370000     -32.43030000     -68.37410000
S      -43.97620000     -33.56330000     -67.05790000
S      -47.11890000     -32.94820000     -66.77880000
H      -48.92630000     -32.19140000     -68.51300000
