40
Properties=species:S:1:pos:R:3 #=T CELL(abcABC):=T 1.889726e+02=T 90.00000=T Traj:=T positionsangstrom=T Step:=T 0=T Bead:=T pbc="F F F"
C      -46.27830000     -35.34130000     -75.43790000
C      -46.45950000     -34.11150000     -74.73970000
C      -45.31870000     -33.45730000     -74.24140000
C      -44.03910000     -33.81930000     -74.58530000
C      -43.85120000     -35.05620000     -75.21270000
C      -44.95040000     -35.80320000     -75.64480000
H      -47.09950000     -35.94980000     -75.81060000
H      -45.40800000     -32.50610000     -73.68150000
H      -42.92000000     -35.49010000     -75.31640000
H      -44.90520000     -36.76660000     -76.19990000
C      -42.84640000     -32.90210000     -74.34210000
H      -43.19510000     -31.79080000     -74.42990000
H      -42.10970000     -33.07490000     -75.13580000
C      -47.84190000     -33.61780000     -74.55900000
H      -48.34510000     -33.17870000     -75.48730000
H      -48.60150000     -34.36990000     -74.19040000
S      -41.86460000     -33.27400000     -72.74460000
S      -47.95000000     -32.20970000     -73.39140000
C      -43.04880000     -33.73790000     -71.48760000
H      -43.98220000     -34.21070000     -71.85520000
H      -42.55140000     -34.56860000     -70.95710000
C      -47.55500000     -32.94720000     -71.74790000
H      -46.81730000     -33.77880000     -71.75180000
H      -48.40490000     -33.29950000     -71.24550000
C      -46.98460000     -31.83130000     -70.82080000
H      -46.06990000     -31.34900000     -71.25500000
H      -47.70290000     -30.99990000     -70.63590000
C      -43.37720000     -32.56510000     -70.54160000
H      -44.06500000     -31.85780000     -71.03040000
H      -42.41860000     -32.10000000     -70.22480000
C      -44.04470000     -33.02400000     -69.31880000
C      -43.32260000     -33.55950000     -68.27100000
C      -45.38960000     -32.87090000     -68.87530000
H      -42.26680000     -33.72850000     -68.29440000
C      -45.64220000     -33.41570000     -67.61340000
C      -46.65650000     -32.40970000     -69.43550000
C      -47.70660000     -32.54330000     -68.49810000
S      -44.20900000     -33.93390000     -66.84100000
S      -47.28380000     -33.29430000     -67.00940000
H      -48.72960000     -32.23080000     -68.71800000
