40
Properties=species:S:1:pos:R:3 #=T CELL(abcABC):=T 1.889726e+02=T 90.00000=T Traj:=T positionsangstrom=T Step:=T 0=T Bead:=T pbc="F F F"
C      -45.68240000     -35.93060000     -71.05950000
C      -45.30670000     -35.46030000     -72.34580000
C      -43.97600000     -35.04440000     -72.54180000
C      -43.18500000     -34.76350000     -71.43730000
C      -43.66060000     -35.01920000     -70.17050000
C      -44.93850000     -35.57130000     -69.97110000
H      -46.72320000     -36.30640000     -70.97240000
H      -43.62250000     -34.84880000     -73.50270000
H      -43.01520000     -34.74680000     -69.31570000
H      -45.35520000     -35.65850000     -68.93940000
C      -41.79780000     -34.21100000     -71.63990000
H      -41.21840000     -34.69810000     -72.48030000
H      -41.05550000     -34.38690000     -70.89810000
C      -46.22410000     -35.69090000     -73.48540000
H      -46.15890000     -36.73500000     -73.85260000
H      -47.23130000     -35.54820000     -73.10270000
S      -41.82880000     -32.43510000     -72.04470000
S      -46.04610000     -34.56580000     -74.97490000
C      -42.56480000     -31.90340000     -70.44630000
H      -42.81890000     -32.76140000     -69.78750000
H      -41.82320000     -31.41950000     -69.82790000
C      -46.76900000     -32.98120000     -74.28780000
H      -47.86960000     -33.07140000     -74.16630000
H      -46.66070000     -32.27050000     -75.11000000
C      -46.03330000     -32.37500000     -73.09810000
H      -44.96790000     -32.64630000     -73.00030000
H      -46.02260000     -31.35640000     -73.33490000
C      -43.80430000     -31.05790000     -70.78670000
H      -43.91210000     -31.14680000     -71.86210000
H      -43.51770000     -30.04100000     -70.47570000
C      -45.02640000     -31.50190000     -70.00630000
C      -45.03280000     -31.43680000     -68.66000000
C      -46.25170000     -32.09970000     -70.55970000
H      -44.32820000     -30.99270000     -67.97440000
C      -47.08550000     -32.48900000     -69.48400000
C      -46.71890000     -32.65910000     -71.79090000
C      -47.97550000     -33.30940000     -71.68210000
S      -46.42230000     -32.11080000     -67.94110000
S      -48.57460000     -33.38420000     -69.96740000
H      -48.60860000     -33.63210000     -72.44650000
