40
Properties=species:S:1:pos:R:3 #=T CELL(abcABC):=T 1.889726e+02=T 90.00000=T Traj:=T positionsangstrom=T Step:=T 0=T Bead:=T pbc="F F F"
C      -45.32990000     -36.76600000     -73.92450000
C      -45.89430000     -35.45660000     -74.20300000
C      -45.04840000     -34.41280000     -74.50140000
C      -43.60860000     -34.55690000     -74.50390000
C      -43.09350000     -35.86820000     -74.28240000
C      -43.95780000     -36.92640000     -73.92810000
H      -46.03200000     -37.61720000     -73.71290000
H      -45.46150000     -33.41440000     -74.59530000
H      -42.04380000     -36.06930000     -74.32710000
H      -43.59460000     -37.94730000     -73.76030000
C      -42.77140000     -33.32590000     -74.65980000
H      -43.12410000     -32.53930000     -75.32210000
H      -41.79440000     -33.63660000     -75.06430000
C      -47.38860000     -35.29640000     -74.16680000
H      -47.80120000     -35.37060000     -75.18580000
H      -47.89440000     -36.15530000     -73.69130000
S      -42.31910000     -32.40360000     -73.08760000
S      -48.25310000     -33.71640000     -73.56090000
C      -43.48540000     -32.94390000     -71.82870000
H      -44.36490000     -33.34960000     -72.21270000
H      -43.05570000     -33.76960000     -71.16040000
C      -47.71920000     -33.79890000     -71.83790000
H      -47.01950000     -34.55080000     -71.93890000
H      -48.58160000     -34.20000000     -71.18760000
C      -47.12300000     -32.51180000     -71.25480000
H      -46.28000000     -32.13400000     -71.78150000
H      -47.81590000     -31.66440000     -71.44330000
C      -43.74160000     -31.72840000     -70.95520000
H      -44.42090000     -31.13170000     -71.54840000
H      -42.69770000     -31.26040000     -70.84290000
C      -44.25830000     -31.95630000     -69.56220000
C      -43.44140000     -31.73550000     -68.46970000
C      -45.60790000     -32.28410000     -69.08140000
H      -42.39170000     -31.36270000     -68.57910000
C      -45.77660000     -32.31570000     -67.67850000
C      -46.87100000     -32.61550000     -69.73070000
C      -47.89410000     -32.92220000     -68.85290000
S      -44.26670000     -31.94250000     -66.90500000
S      -47.40370000     -32.74230000     -67.18500000
H      -48.89750000     -33.21740000     -69.19170000
