40
Properties=species:S:1:pos:R:3 #=T CELL(abcABC):=T 1.889726e+02=T 90.00000=T Traj:=T positionsangstrom=T Step:=T 0=T Bead:=T pbc="F F F"
C      -45.42990000     -36.63870000     -73.88110000
C      -45.99280000     -35.39820000     -74.19270000
C      -45.19220000     -34.29250000     -74.54300000
C      -43.84790000     -34.38610000     -74.39720000
C      -43.19630000     -35.59180000     -74.09070000
C      -43.99140000     -36.76830000     -73.94310000
H      -45.97510000     -37.58590000     -73.69210000
H      -45.73030000     -33.35890000     -74.78420000
H      -42.11610000     -35.67640000     -74.14960000
H      -43.49850000     -37.67580000     -73.76090000
C      -43.01290000     -33.16710000     -74.59840000
H      -43.67740000     -32.32700000     -74.96370000
H      -42.32760000     -33.29390000     -75.45800000
C      -47.48420000     -35.18480000     -74.23580000
H      -47.75950000     -35.38980000     -75.27580000
H      -47.92790000     -35.93310000     -73.57720000
S      -42.18400000     -32.43160000     -73.09920000
S      -48.02640000     -33.56450000     -73.64600000
C      -43.33400000     -32.89350000     -71.71170000
H      -44.21100000     -33.39870000     -72.26240000
H      -42.90200000     -33.61650000     -70.96970000
C      -47.64360000     -33.76270000     -71.87440000
H      -46.84190000     -34.56130000     -71.69910000
H      -48.47640000     -34.09210000     -71.31790000
C      -47.21360000     -32.42080000     -71.31750000
H      -46.26960000     -32.06170000     -71.81560000
H      -48.02340000     -31.68200000     -71.32440000
C      -43.82700000     -31.57560000     -70.93450000
H      -44.62220000     -31.14190000     -71.54080000
H      -43.05810000     -30.87740000     -70.91010000
C      -44.29020000     -32.02150000     -69.53100000
C      -43.48890000     -32.02850000     -68.43660000
C      -45.61380000     -32.45510000     -69.11480000
H      -42.44410000     -31.74890000     -68.44600000
C      -45.73980000     -32.64190000     -67.75810000
C      -46.91780000     -32.51630000     -69.76520000
C      -47.91080000     -32.80910000     -68.84920000
S      -44.23570000     -32.43570000     -66.90370000
S      -47.32900000     -32.77000000     -67.20090000
H      -48.98630000     -32.70230000     -68.99680000
