40
Properties=species:S:1:pos:R:3 #=T CELL(abcABC):=T 1.889726e+02=T 90.00000=T Traj:=T positionsangstrom=T Step:=T 0=T Bead:=T pbc="F F F"
C      -45.44700000     -36.43700000     -74.09740000
C      -46.02850000     -35.16590000     -74.32800000
C      -45.24790000     -34.05130000     -74.49580000
C      -43.83450000     -34.18550000     -74.43970000
C      -43.22690000     -35.43130000     -74.20160000
C      -44.06130000     -36.48740000     -73.97550000
H      -46.13850000     -37.25910000     -73.96710000
H      -45.61300000     -33.04810000     -74.79870000
H      -42.14540000     -35.48590000     -74.02460000
H      -43.56740000     -37.50070000     -73.83870000
C      -42.99260000     -32.92460000     -74.46960000
H      -43.69270000     -32.09200000     -74.68890000
H      -42.11380000     -32.97250000     -75.14500000
C      -47.55750000     -35.03260000     -74.49660000
H      -47.89360000     -34.77190000     -75.53140000
H      -48.10680000     -35.95970000     -74.28310000
S      -41.97620000     -32.56060000     -72.93270000
S      -48.28780000     -33.68510000     -73.46730000
C      -43.15240000     -32.83620000     -71.57620000
H      -44.04450000     -33.41640000     -71.89340000
H      -42.57980000     -33.41870000     -70.79830000
C      -47.41660000     -33.79360000     -71.86250000
H      -46.47070000     -34.23670000     -71.98350000
H      -48.16810000     -34.41240000     -71.31330000
C      -47.37520000     -32.33720000     -71.24160000
H      -46.61590000     -31.79100000     -71.82720000
H      -48.25990000     -31.72220000     -71.37030000
C      -43.77420000     -31.58480000     -70.87530000
H      -44.58860000     -31.20910000     -71.49040000
H      -43.00990000     -30.84390000     -70.87490000
C      -44.27960000     -31.96830000     -69.51650000
C      -43.41090000     -32.03840000     -68.45410000
C      -45.64830000     -32.32690000     -69.11920000
H      -42.33520000     -32.08160000     -68.48660000
C      -45.71450000     -32.61370000     -67.73790000
C      -46.98310000     -32.44180000     -69.78730000
C      -47.97070000     -32.78950000     -68.89270000
S      -44.18310000     -32.67390000     -66.97160000
S      -47.34540000     -33.12660000     -67.31610000
H      -49.00970000     -33.13250000     -69.11060000
