40
Properties=species:S:1:pos:R:3 #=T CELL(abcABC):=T 1.889726e+02=T 90.00000=T Traj:=T positionsangstrom=T Step:=T 0=T Bead:=T pbc="F F F"
C      -45.46080000     -36.88030000     -74.12420000
C      -45.99090000     -35.56630000     -74.13550000
C      -45.09060000     -34.41580000     -74.16000000
C      -43.71180000     -34.59010000     -74.28840000
C      -43.25050000     -35.89210000     -74.26700000
C      -44.07690000     -36.96300000     -74.07960000
H      -46.03880000     -37.72320000     -74.00430000
H      -45.61130000     -33.48000000     -74.27620000
H      -42.19860000     -36.06670000     -74.30010000
H      -43.59380000     -37.96390000     -73.93130000
C      -42.73160000     -33.49020000     -74.55300000
H      -43.24920000     -32.82160000     -75.33690000
H      -41.83620000     -33.76050000     -75.07290000
C      -47.47150000     -35.37350000     -74.28780000
H      -47.62400000     -35.41270000     -75.39020000
H      -47.95380000     -36.20790000     -73.80170000
S      -42.22240000     -32.47670000     -73.08380000
S      -48.09670000     -33.83350000     -73.58740000
C      -43.55290000     -32.69670000     -71.81930000
H      -44.48450000     -33.09800000     -72.34600000
H      -43.15130000     -33.53080000     -71.13060000
C      -47.64280000     -34.09660000     -71.71940000
H      -46.72550000     -34.76020000     -71.69820000
H      -48.39370000     -34.52140000     -71.05160000
C      -47.12610000     -32.66070000     -71.28790000
H      -46.20310000     -32.45190000     -71.86320000
H      -47.94020000     -31.93340000     -71.54030000
C      -43.85760000     -31.45420000     -71.00310000
H      -44.68920000     -30.87880000     -71.39610000
H      -43.08270000     -30.75740000     -71.04430000
C      -44.26280000     -31.76310000     -69.54800000
C      -43.52820000     -31.53060000     -68.39920000
C      -45.57350000     -32.16830000     -69.17900000
H      -42.44300000     -31.13010000     -68.30000000
C      -45.72890000     -32.32450000     -67.80340000
C      -46.78140000     -32.58930000     -69.78130000
C      -47.83680000     -32.79600000     -68.88900000
S      -44.32550000     -31.82300000     -66.87190000
S      -47.32420000     -32.72830000     -67.23020000
H      -48.84710000     -33.11750000     -69.10640000
