40
Properties=species:S:1:pos:R:3 #=T CELL(abcABC):=T 1.889726e+02=T 90.00000=T Traj:=T positionsangstrom=T Step:=T 0=T Bead:=T pbc="F F F"
C      -45.41660000     -36.67940000     -73.92490000
C      -45.91880000     -35.42290000     -74.23720000
C      -45.15210000     -34.29490000     -74.50260000
C      -43.79900000     -34.45330000     -74.50670000
C      -43.20490000     -35.72360000     -74.13320000
C      -44.01060000     -36.81590000     -73.86300000
H      -46.16240000     -37.51820000     -73.63240000
H      -45.53600000     -33.33690000     -74.83940000
H      -42.14230000     -35.71390000     -74.02720000
H      -43.66080000     -37.69620000     -73.49450000
C      -42.89640000     -33.21790000     -74.79620000
H      -43.35490000     -32.39270000     -75.32240000
H      -42.06150000     -33.66480000     -75.35290000
C      -47.41140000     -35.32170000     -74.33010000
H      -47.81460000     -35.32600000     -75.33330000
H      -47.90530000     -36.16450000     -73.79240000
S      -42.28830000     -32.46630000     -73.17170000
S      -48.01540000     -33.67570000     -73.60730000
C      -43.30710000     -33.00500000     -71.72920000
H      -44.10180000     -33.55510000     -72.13830000
H      -42.69050000     -33.66030000     -71.14400000
C      -47.81180000     -33.80430000     -71.73150000
H      -47.16130000     -34.65500000     -71.58440000
H      -48.75630000     -34.01650000     -71.20920000
C      -47.14520000     -32.49650000     -71.25810000
H      -46.26440000     -32.32800000     -71.82380000
H      -47.86640000     -31.69370000     -71.55420000
C      -43.75270000     -31.73190000     -70.93350000
H      -44.49070000     -31.07620000     -71.34740000
H      -42.78730000     -31.14570000     -70.80260000
C      -44.29380000     -31.96480000     -69.50290000
C      -43.45510000     -31.90110000     -68.41450000
C      -45.63590000     -32.30050000     -69.10880000
H      -42.40160000     -31.72980000     -68.52380000
C      -45.75920000     -32.33010000     -67.70800000
C      -46.91810000     -32.47330000     -69.75100000
C      -47.91710000     -32.71530000     -68.84820000
S      -44.22750000     -32.11660000     -66.84620000
S      -47.38790000     -32.86000000     -67.18030000
H      -48.92900000     -32.90500000     -69.18950000
