40
Properties=species:S:1:pos:R:3 #=T CELL(abcABC):=T 1.889726e+02=T 90.00000=T Traj:=T positionsangstrom=T Step:=T 0=T Bead:=T pbc="F F F"
C      -45.50300000     -37.00810000     -73.01170000
C      -46.15350000     -35.93440000     -73.68320000
C      -45.34070000     -34.90030000     -74.17010000
C      -43.93800000     -34.90140000     -73.93310000
C      -43.33380000     -36.00450000     -73.29230000
C      -44.09170000     -37.10080000     -72.89510000
H      -46.13200000     -37.78850000     -72.59590000
H      -45.78400000     -33.98130000     -74.64920000
H      -42.19630000     -36.06170000     -73.26820000
H      -43.59350000     -37.92340000     -72.53770000
C      -43.07310000     -33.82250000     -74.54220000
H      -43.72120000     -33.24600000     -75.18560000
H      -42.23770000     -34.19300000     -75.16780000
C      -47.60650000     -35.88390000     -74.00800000
H      -47.69300000     -35.97800000     -75.10370000
H      -48.06820000     -36.86070000     -73.69250000
S      -42.06550000     -32.82690000     -73.25180000
S      -48.35760000     -34.36590000     -73.32130000
C      -43.27720000     -32.77000000     -71.74280000
H      -44.07330000     -33.52110000     -71.99290000
H      -42.73690000     -33.06200000     -70.90040000
C      -47.53020000     -34.26650000     -71.65050000
H      -46.64600000     -34.78670000     -71.58100000
H      -48.27720000     -34.61800000     -70.93470000
C      -47.23740000     -32.75310000     -71.39120000
H      -46.50530000     -32.30680000     -72.12760000
H      -48.24250000     -32.22000000     -71.40660000
C      -43.88820000     -31.39710000     -71.52790000
H      -44.71480000     -31.16520000     -72.19970000
H      -43.06760000     -30.72650000     -71.71660000
C      -44.40070000     -31.23830000     -70.13530000
C      -43.56870000     -30.69420000     -69.14890000
C      -45.51710000     -31.95470000     -69.56950000
H      -42.92710000     -29.87060000     -69.29930000
C      -45.57030000     -31.77440000     -68.19930000
C      -46.76380000     -32.55570000     -69.95280000
C      -47.58210000     -32.90980000     -68.93620000
S      -44.31730000     -30.84310000     -67.46250000
S      -46.93810000     -32.52110000     -67.37990000
H      -48.34130000     -33.62760000     -69.09260000
