40
Properties=species:S:1:pos:R:3 #=T CELL(abcABC):=T 1.889726e+02=T 90.00000=T Traj:=T positionsangstrom=T Step:=T 0=T Bead:=T pbc="F F F"
C      -45.75880000     -29.09370000     -71.59580000
C      -44.70130000     -29.89390000     -71.25960000
C      -44.79410000     -30.68240000     -70.10790000
C      -45.97460000     -30.75660000     -69.33990000
C      -47.07730000     -29.99550000     -69.79350000
C      -46.98420000     -29.17820000     -70.90360000
H      -45.65150000     -28.47270000     -72.50660000
H      -43.93290000     -31.32990000     -69.81960000
H      -47.93180000     -30.11390000     -69.13440000
H      -47.91540000     -28.71240000     -71.25890000
C      -46.04650000     -31.55730000     -68.07470000
H      -46.36680000     -30.92750000     -67.29120000
H      -45.10540000     -32.03960000     -67.76930000
C      -43.41350000     -29.90090000     -72.00980000
H      -43.03780000     -28.93170000     -72.23760000
H      -42.64440000     -30.45740000     -71.52620000
S      -47.39110000     -32.90350000     -68.11300000
S      -43.50810000     -30.77360000     -73.65910000
C      -46.77080000     -33.94510000     -69.41380000
H      -47.39940000     -34.96680000     -69.45630000
H      -46.87030000     -33.52220000     -70.36370000
C      -43.63850000     -32.54870000     -73.09560000
H      -42.91180000     -32.69030000     -72.26910000
H      -43.28870000     -33.09140000     -73.99790000
C      -45.09440000     -33.02320000     -72.69860000
H      -45.25820000     -32.81880000     -71.68100000
H      -45.81550000     -32.49310000     -73.42140000
C      -45.23700000     -34.37060000     -69.42390000
H      -44.92120000     -34.60330000     -68.41210000
H      -44.56640000     -33.51670000     -69.68790000
C      -45.13730000     -35.56080000     -70.35950000
C      -45.22240000     -36.86100000     -69.95760000
C      -45.00260000     -35.49470000     -71.83680000
H      -45.45680000     -37.07350000     -68.93900000
C      -44.95770000     -36.79640000     -72.37150000
C      -45.23980000     -34.50400000     -72.83040000
C      -45.30260000     -35.01770000     -74.08410000
S      -45.03660000     -38.07880000     -71.16230000
S      -45.01770000     -36.80460000     -74.11720000
H      -45.38250000     -34.25910000     -74.91600000
