40
Properties=species:S:1:pos:R:3 #=T CELL(abcABC):=T 1.889726e+02=T 90.00000=T Traj:=T positionsangstrom=T Step:=T 0=T Bead:=T pbc="F F F"
C      -45.52820000     -36.93690000     -73.51370000
C      -46.09720000     -35.74530000     -74.05930000
C      -45.24080000     -34.72820000     -74.45390000
C      -43.84360000     -34.77850000     -74.29750000
C      -43.29340000     -35.97820000     -73.69280000
C      -44.13190000     -37.03630000     -73.32350000
H      -46.19120000     -37.73340000     -73.05850000
H      -45.71590000     -33.85060000     -74.77880000
H      -42.20220000     -36.14820000     -73.63860000
H      -43.76720000     -37.95960000     -72.82890000
C      -42.94010000     -33.63600000     -74.55800000
H      -43.44870000     -32.82990000     -75.04670000
H      -42.22360000     -34.02530000     -75.26490000
C      -47.59650000     -35.52660000     -74.32580000
H      -47.64340000     -35.36630000     -75.39010000
H      -48.22830000     -36.40070000     -74.01610000
S      -42.03870000     -32.88820000     -72.97330000
S      -48.19720000     -33.91810000     -73.53170000
C      -43.41240000     -32.89120000     -71.71340000
H      -44.31110000     -33.43180000     -72.10740000
H      -43.02700000     -33.39540000     -70.75290000
C      -47.27420000     -33.91690000     -71.98260000
H      -46.38340000     -34.53210000     -72.00160000
H      -47.89570000     -34.45230000     -71.23590000
C      -47.16930000     -32.58780000     -71.34160000
H      -46.45190000     -31.96630000     -71.89620000
H      -48.19820000     -32.07010000     -71.46200000
C      -43.85440000     -31.43390000     -71.24370000
H      -44.55510000     -31.02780000     -72.03570000
H      -43.00240000     -30.78570000     -71.24010000
C      -44.36040000     -31.47980000     -69.83560000
C      -43.54100000     -31.12470000     -68.75510000
C      -45.64590000     -31.97370000     -69.33240000
H      -42.58890000     -30.67440000     -68.90370000
C      -45.70720000     -32.01480000     -67.89700000
C      -46.89520000     -32.52860000     -69.84860000
C      -47.82270000     -32.88130000     -68.90020000
S      -44.29830000     -31.42870000     -67.15270000
S      -47.16360000     -32.63200000     -67.23510000
H      -48.75820000     -33.42000000     -69.11560000
