40
Properties=species:S:1:pos:R:3 #=T CELL(abcABC):=T 1.889726e+02=T 90.00000=T Traj:=T positionsangstrom=T Step:=T 0=T Bead:=T pbc="F F F"
C      -45.08610000     -37.04490000     -72.67470000
C      -45.95490000     -36.18490000     -73.34000000
C      -45.35380000     -35.11440000     -73.98980000
C      -43.96180000     -34.86590000     -73.98860000
C      -43.11480000     -35.77630000     -73.30790000
C      -43.69830000     -36.85060000     -72.66940000
H      -45.47620000     -37.89640000     -72.12890000
H      -45.95680000     -34.44940000     -74.58670000
H      -42.04390000     -35.54750000     -73.27700000
H      -43.00720000     -37.45950000     -72.08050000
C      -43.40780000     -33.63090000     -74.58610000
H      -44.19020000     -32.88600000     -74.89360000
H      -42.85290000     -33.80760000     -75.54900000
C      -47.49000000     -36.30590000     -73.31850000
H      -47.94140000     -36.81600000     -74.17790000
H      -47.83100000     -36.81320000     -72.43350000
S      -42.19030000     -32.69000000     -73.49850000
S      -48.32460000     -34.68660000     -73.30660000
C      -43.04000000     -32.70790000     -71.83920000
H      -43.46300000     -33.70410000     -71.76340000
H      -42.25990000     -32.71740000     -71.06750000
C      -47.99890000     -34.13990000     -71.56180000
H      -48.15490000     -34.90180000     -70.83110000
H      -48.87650000     -33.45880000     -71.48350000
C      -46.71530000     -33.47140000     -71.33580000
H      -45.83190000     -34.12820000     -71.39070000
H      -46.64800000     -32.66900000     -72.13150000
C      -44.00900000     -31.55330000     -71.68460000
H      -44.88490000     -31.68040000     -72.24040000
H      -43.52440000     -30.63710000     -72.09420000
C      -44.43950000     -31.41460000     -70.24390000
C      -43.78260000     -30.56770000     -69.38010000
C      -45.60620000     -31.92810000     -69.57820000
H      -42.78020000     -30.06650000     -69.53770000
C      -45.68520000     -31.57790000     -68.21170000
C      -46.69180000     -32.81800000     -70.01600000
C      -47.56310000     -33.06300000     -68.93180000
S      -44.35040000     -30.53810000     -67.70230000
S      -47.12330000     -32.17800000     -67.42050000
H      -48.62290000     -33.41280000     -68.96460000
