40
Properties=species:S:1:pos:R:3 #=T CELL(abcABC):=T 1.889726e+02=T 90.00000=T Traj:=T positionsangstrom=T Step:=T 0=T Bead:=T pbc="F F F"
C      -43.93700000     -30.62650000     -73.86530000
C      -44.53820000     -31.31150000     -72.77300000
C      -44.68000000     -32.68990000     -72.83340000
C      -44.17160000     -33.42740000     -73.89410000
C      -43.61320000     -32.72560000     -74.97010000
C      -43.50000000     -31.32330000     -74.95340000
H      -43.84930000     -29.52800000     -73.82940000
H      -45.18950000     -33.25780000     -72.04680000
H      -43.26480000     -33.29890000     -75.85870000
H      -43.21790000     -30.78500000     -75.91470000
C      -44.37950000     -34.97540000     -73.87110000
H      -44.10310000     -35.34660000     -74.86450000
H      -45.35870000     -35.30330000     -73.50930000
C      -45.12790000     -30.60810000     -71.60280000
H      -45.28660000     -29.56120000     -71.75150000
H      -45.97850000     -31.08740000     -71.17910000
S      -43.16920000     -35.93500000     -72.74040000
S      -43.89580000     -30.24740000     -70.11810000
C      -44.23900000     -36.80490000     -71.60880000
H      -45.10610000     -37.19300000     -72.14550000
H      -43.58080000     -37.64830000     -71.36290000
C      -43.35100000     -31.95950000     -69.70520000
H      -42.43100000     -31.90740000     -69.12620000
H      -43.03680000     -32.39540000     -70.63700000
C      -44.25830000     -32.88360000     -68.88890000
H      -43.85290000     -33.84440000     -68.91750000
H      -44.15560000     -32.57260000     -67.77070000
C      -44.56450000     -36.07190000     -70.22710000
H      -43.76250000     -35.36160000     -70.04900000
H      -44.52050000     -36.84550000     -69.41870000
C      -45.93570000     -35.42240000     -70.34370000
C      -46.96730000     -36.12660000     -70.95030000
C      -46.41740000     -34.13240000     -69.84310000
H      -46.95020000     -37.14270000     -71.29290000
C      -47.79060000     -33.95100000     -69.95800000
C      -45.74580000     -32.96900000     -69.20650000
C      -46.65760000     -31.98650000     -68.84880000
S      -48.44820000     -35.22120000     -70.94530000
S      -48.31990000     -32.34870000     -69.38740000
H      -46.39840000     -31.03760000     -68.35590000
