40
Properties=species:S:1:pos:R:3 #=T CELL(abcABC):=T 1.889726e+02=T 90.00000=T Traj:=T positionsangstrom=T Step:=T 0=T Bead:=T pbc="F F F"
C      -44.96950000     -37.20230000     -72.49580000
C      -45.78490000     -36.30900000     -73.14590000
C      -45.21250000     -35.15280000     -73.69380000
C      -43.87140000     -34.93680000     -73.70620000
C      -43.03680000     -35.84600000     -73.07000000
C      -43.54240000     -36.94940000     -72.43060000
H      -45.36760000     -38.13590000     -72.09100000
H      -45.84280000     -34.38240000     -74.22230000
H      -41.97750000     -35.61600000     -73.25930000
H      -42.92670000     -37.64210000     -71.86970000
C      -43.29990000     -33.76510000     -74.39660000
H      -44.09380000     -33.27910000     -74.91930000
H      -42.65550000     -34.18480000     -75.19260000
C      -47.19020000     -36.74300000     -73.35870000
H      -47.41950000     -36.74750000     -74.42190000
H      -47.30940000     -37.75280000     -72.93650000
S      -42.34990000     -32.58060000     -73.34920000
S      -48.45020000     -35.44110000     -72.79310000
C      -43.51450000     -32.38750000     -71.91490000
H      -43.96790000     -33.35590000     -71.66320000
H      -42.98510000     -32.12410000     -71.01120000
C      -47.74280000     -34.87030000     -71.19940000
H      -47.04750000     -35.52670000     -70.84370000
H      -48.59220000     -34.99270000     -70.56330000
C      -47.09810000     -33.44170000     -71.25220000
H      -46.24540000     -33.39830000     -71.90170000
H      -47.90340000     -32.77990000     -71.73390000
C      -44.51720000     -31.28020000     -72.15410000
H      -45.24430000     -31.52560000     -72.90780000
H      -43.94450000     -30.44570000     -72.67730000
C      -44.95930000     -30.81880000     -70.81060000
C      -44.30280000     -29.84070000     -70.06350000
C      -45.79740000     -31.67070000     -69.90520000
H      -43.93990000     -28.93540000     -70.49040000
C      -45.56290000     -31.29070000     -68.59790000
C      -46.73370000     -32.79450000     -69.95450000
C      -47.14830000     -33.22030000     -68.72660000
S      -44.47750000     -29.92540000     -68.27800000
S      -46.42320000     -32.27950000     -67.41080000
H      -47.87470000     -33.87710000     -68.40970000
