40
Properties=species:S:1:pos:R:3 #=T CELL(abcABC):=T 1.889726e+02=T 90.00000=T Traj:=T positionsangstrom=T Step:=T 0=T Bead:=T pbc="F F F"
C      -45.49810000     -29.57080000     -72.20130000
C      -44.36270000     -30.26890000     -71.73230000
C      -44.32440000     -30.86560000     -70.46560000
C      -45.34940000     -30.59760000     -69.57420000
C      -46.47430000     -29.90320000     -70.05110000
C      -46.62450000     -29.42460000     -71.35150000
H      -45.42810000     -29.26640000     -73.26130000
H      -43.47490000     -31.50860000     -70.14730000
H      -47.35680000     -29.77180000     -69.40790000
H      -47.47200000     -28.86350000     -71.70910000
C      -45.42880000     -31.03770000     -68.08580000
H      -45.51520000     -30.16660000     -67.42790000
H      -44.45510000     -31.40840000     -67.81380000
C      -43.17860000     -30.41010000     -72.64450000
H      -42.81180000     -29.46580000     -72.86430000
H      -42.32480000     -31.05180000     -72.21070000
S      -46.76550000     -32.21600000     -67.68680000
S      -43.64080000     -31.05810000     -74.28110000
C      -46.71990000     -33.43470000     -69.05790000
H      -47.45340000     -34.19190000     -68.76540000
H      -47.19230000     -32.94370000     -69.91040000
C      -43.97410000     -32.80560000     -73.99310000
H      -42.97650000     -33.24480000     -73.75340000
H      -44.39250000     -33.16140000     -74.99150000
C      -45.04820000     -33.19280000     -72.93140000
H      -44.79060000     -32.82780000     -71.90870000
H      -45.96530000     -32.76740000     -73.09290000
C      -45.31930000     -33.96230000     -69.42500000
H      -44.68550000     -34.22150000     -68.50040000
H      -44.76940000     -33.24150000     -69.98670000
C      -45.38740000     -35.25540000     -70.15560000
C      -45.59350000     -36.43130000     -69.41170000
C      -45.47170000     -35.48070000     -71.61690000
H      -45.33950000     -36.52730000     -68.37680000
C      -45.63200000     -36.83470000     -71.88230000
C      -45.21640000     -34.70360000     -72.89560000
C      -45.30570000     -35.54270000     -73.96680000
S      -45.73670000     -37.85930000     -70.53420000
S      -45.43910000     -37.22780000     -73.55140000
H      -45.26260000     -35.27140000     -75.07270000
