40
Properties=species:S:1:pos:R:3 #=T CELL(abcABC):=T 1.889726e+02=T 90.00000=T Traj:=T positionsangstrom=T Step:=T 0=T Bead:=T pbc="F F F"
C      -47.70210000     -32.02190000     -68.60850000
C      -47.31760000     -32.37700000     -69.89980000
C      -46.43730000     -33.46240000     -70.02650000
C      -45.97780000     -34.12420000     -68.87880000
C      -46.11610000     -33.57270000     -67.61180000
C      -47.09470000     -32.61440000     -67.50700000
H      -48.55110000     -31.26890000     -68.53270000
H      -46.28960000     -33.93600000     -71.03310000
H      -45.71950000     -34.05470000     -66.71150000
H      -47.33180000     -32.28420000     -66.53890000
C      -45.06950000     -35.37450000     -69.02540000
H      -45.49690000     -35.79190000     -69.94680000
H      -45.27690000     -36.15520000     -68.31600000
C      -47.78240000     -31.65700000     -71.05950000
H      -47.71610000     -32.19170000     -72.04480000
H      -48.86030000     -31.33000000     -70.94510000
S      -43.20380000     -35.12800000     -69.06900000
S      -46.79010000     -29.98720000     -71.18940000
C      -42.84210000     -33.50160000     -69.80120000
H      -43.82170000     -32.95880000     -69.56340000
H      -42.09260000     -32.90160000     -69.24470000
C      -45.12400000     -30.67220000     -71.26320000
H      -44.92970000     -31.50110000     -70.50220000
H      -44.55960000     -29.86230000     -70.85690000
C      -44.52460000     -31.06710000     -72.58080000
H      -44.52660000     -30.29650000     -73.35220000
H      -43.47150000     -31.27090000     -72.48270000
C      -42.49090000     -33.56310000     -71.32410000
H      -41.54450000     -34.08830000     -71.48390000
H      -42.35570000     -32.52780000     -71.73970000
C      -43.53170000     -34.30520000     -72.09460000
C      -43.57840000     -35.68550000     -72.22760000
C      -44.55810000     -33.63240000     -72.84420000
H      -42.88160000     -36.35050000     -71.69590000
C      -45.21390000     -34.61370000     -73.64330000
C      -45.04430000     -32.32030000     -73.16390000
C      -46.02670000     -32.34490000     -74.16390000
S      -44.65000000     -36.23940000     -73.41690000
S      -46.35950000     -33.99000000     -74.82460000
H      -46.50420000     -31.45190000     -74.52100000
