40
Properties=species:S:1:pos:R:3 #=T CELL(abcABC):=T 1.889726e+02=T 90.00000=T Traj:=T positionsangstrom=T Step:=T 0=T Bead:=T pbc="F F F"
C      -46.06370000     -30.09680000     -72.91370000
C      -44.66100000     -30.50880000     -72.65880000
C      -44.25370000     -30.40010000     -71.31840000
C      -45.13460000     -30.08960000     -70.26370000
C      -46.51150000     -29.90880000     -70.55530000
C      -46.91350000     -29.83550000     -71.87100000
H      -46.40130000     -30.06270000     -73.90740000
H      -43.16800000     -30.44220000     -71.04800000
H      -47.15670000     -29.65310000     -69.74960000
H      -47.97460000     -29.48370000     -72.11470000
C      -44.63350000     -30.16600000     -68.85480000
H      -44.64740000     -29.18320000     -68.37970000
H      -43.57720000     -30.46750000     -68.75390000
C      -43.57350000     -30.97010000     -73.64550000
H      -43.12760000     -30.02840000     -74.07630000
H      -42.72250000     -31.43040000     -73.13970000
S      -45.58790000     -31.36710000     -67.85690000
S      -44.31460000     -32.05490000     -74.96940000
C      -45.79800000     -32.83400000     -68.97450000
H      -46.21190000     -33.60650000     -68.28490000
H      -46.56780000     -32.51080000     -69.68760000
C      -44.63360000     -33.64460000     -74.04340000
H      -43.68770000     -34.10640000     -73.72410000
H      -44.98440000     -34.39030000     -74.76070000
C      -45.79020000     -33.58400000     -73.08710000
H      -45.68250000     -32.80170000     -72.36420000
H      -46.67660000     -33.36430000     -73.65140000
C      -44.50750000     -33.43420000     -69.60070000
H      -43.66710000     -33.45160000     -68.84920000
H      -44.23820000     -32.90070000     -70.54790000
C      -44.79250000     -34.88090000     -70.01740000
C      -44.51780000     -35.85430000     -69.08920000
C      -45.54840000     -35.42480000     -71.12060000
H      -43.92670000     -35.61580000     -68.22330000
C      -45.68890000     -36.83100000     -71.00750000
C      -46.01870000     -34.95090000     -72.42520000
C      -46.55700000     -35.98980000     -73.16910000
S      -45.03750000     -37.48800000     -69.49020000
S      -46.40320000     -37.57640000     -72.35010000
H      -46.64550000     -36.21510000     -74.24800000
