40
Properties=species:S:1:pos:R:3 #=T CELL(abcABC):=T 1.889726e+02=T 90.00000=T Traj:=T positionsangstrom=T Step:=T 0=T Bead:=T pbc="F F F"
C      -45.50280000     -32.02920000     -73.24160000
C      -46.76700000     -32.61530000     -73.30710000
C      -46.81980000     -33.98950000     -73.63290000
C      -45.62840000     -34.75910000     -73.79420000
C      -44.35710000     -34.08070000     -73.78720000
C      -44.33170000     -32.71540000     -73.51980000
H      -45.51940000     -30.98700000     -73.08470000
H      -47.78040000     -34.55640000     -73.81320000
H      -43.49320000     -34.64520000     -73.99230000
H      -43.38430000     -32.20060000     -73.39150000
C      -45.79450000     -36.27740000     -74.02970000
H      -44.82740000     -36.74040000     -74.30750000
H      -46.59000000     -36.55460000     -74.77920000
C      -47.96640000     -31.85430000     -73.02560000
H      -48.45820000     -31.35670000     -73.82440000
H      -48.61990000     -32.63340000     -72.67050000
S      -46.30730000     -37.25350000     -72.51520000
S      -47.82080000     -30.64740000     -71.63060000
C      -45.01830000     -36.78570000     -71.31960000
H      -44.96330000     -37.63930000     -70.68170000
H      -44.08520000     -36.56270000     -71.82940000
C      -48.11240000     -31.65130000     -70.14470000
H      -49.05320000     -32.26710000     -70.14680000
H      -48.13830000     -30.83350000     -69.38940000
C      -47.09950000     -32.70630000     -69.84650000
H      -47.47390000     -33.36820000     -69.10540000
H      -47.08040000     -33.40370000     -70.67160000
C      -45.38370000     -35.57540000     -70.47200000
H      -45.83190000     -35.94250000     -69.54690000
H      -46.11630000     -34.94080000     -71.06400000
C      -44.22700000     -34.56940000     -70.08100000
C      -42.93340000     -34.86160000     -70.39340000
C      -44.46130000     -33.12980000     -69.79280000
H      -42.61110000     -35.81180000     -70.77980000
C      -43.29780000     -32.49740000     -69.42910000
C      -45.63080000     -32.28220000     -69.66060000
C      -45.37030000     -30.98570000     -69.31110000
S      -41.88880000     -33.52730000     -69.76650000
S      -43.56330000     -30.85600000     -68.97490000
H      -46.12820000     -30.21060000     -69.31850000
