40
Properties=species:S:1:pos:R:3 #=T CELL(abcABC):=T 1.889726e+02=T 90.00000=T Traj:=T positionsangstrom=T Step:=T 0=T Bead:=T pbc="F F F"
C      -45.25220000     -31.95980000     -73.00760000
C      -46.59020000     -32.38250000     -73.10570000
C      -46.67990000     -33.70170000     -73.56470000
C      -45.60440000     -34.54760000     -73.90610000
C      -44.29520000     -34.05270000     -73.76240000
C      -44.10660000     -32.76290000     -73.23230000
H      -45.07330000     -30.95810000     -72.63040000
H      -47.75340000     -34.04110000     -73.63730000
H      -43.37800000     -34.59320000     -74.01270000
H      -43.11630000     -32.39710000     -72.90990000
C      -45.92310000     -35.85760000     -74.52850000
H      -45.04220000     -36.20170000     -75.05870000
H      -46.85260000     -35.88630000     -75.06690000
C      -47.84320000     -31.50100000     -72.82400000
H      -48.19670000     -31.01130000     -73.73270000
H      -48.65920000     -32.20700000     -72.59490000
S      -46.02270000     -37.13880000     -73.15830000
S      -47.83760000     -30.41620000     -71.38240000
C      -44.79370000     -36.58560000     -71.94700000
H      -44.48200000     -37.44900000     -71.36880000
H      -43.91430000     -36.11700000     -72.29790000
C      -48.11180000     -31.60120000     -69.93500000
H      -49.12980000     -31.98150000     -69.96010000
H      -47.87810000     -30.98410000     -69.04560000
C      -47.15590000     -32.79430000     -69.86990000
H      -47.57090000     -33.37390000     -69.05280000
H      -47.28520000     -33.57050000     -70.61910000
C      -45.46890000     -35.55020000     -70.92750000
H      -46.00890000     -36.19990000     -70.20730000
H      -46.15520000     -34.91510000     -71.46570000
C      -44.51960000     -34.69700000     -70.20650000
C      -43.29440000     -35.13650000     -69.91590000
C      -44.68440000     -33.32770000     -69.77730000
H      -42.86000000     -36.12210000     -70.17540000
C      -43.44370000     -32.79460000     -69.32880000
C      -45.75260000     -32.37730000     -69.66990000
C      -45.29150000     -31.12980000     -69.34890000
S      -42.10790000     -33.90570000     -69.38320000
S      -43.60130000     -31.12950000     -68.90940000
H      -45.84020000     -30.12940000     -69.44380000
