40
Properties=species:S:1:pos:R:3 #=T CELL(abcABC):=T 1.889726e+02=T 90.00000=T Traj:=T positionsangstrom=T Step:=T 0=T Bead:=T pbc="F F F"
C      -45.53140000     -31.96330000     -73.25510000
C      -46.81130000     -32.55960000     -73.31480000
C      -46.85090000     -33.92090000     -73.63700000
C      -45.68350000     -34.68420000     -73.70560000
C      -44.45450000     -34.11130000     -73.46350000
C      -44.36830000     -32.73050000     -73.25480000
H      -45.41240000     -30.96120000     -72.85000000
H      -47.78170000     -34.43860000     -73.67380000
H      -43.56480000     -34.71830000     -73.46910000
H      -43.38380000     -32.21840000     -73.19140000
C      -45.70000000     -36.12130000     -74.14560000
H      -44.79770000     -36.40490000     -74.66930000
H      -46.48280000     -36.21990000     -74.88680000
C      -48.02940000     -31.80340000     -72.98970000
H      -48.27560000     -31.04820000     -73.75390000
H      -48.95490000     -32.38300000     -72.86220000
S      -46.22570000     -37.21590000     -72.80470000
S      -47.75460000     -30.59180000     -71.59450000
C      -44.96120000     -36.66290000     -71.43790000
H      -44.78470000     -37.54340000     -70.78070000
H      -44.04450000     -36.54020000     -72.08190000
C      -48.09010000     -31.54660000     -70.04410000
H      -49.15330000     -31.83370000     -70.09920000
H      -47.97410000     -30.87880000     -69.22800000
C      -47.14740000     -32.69080000     -69.91240000
H      -47.55570000     -33.42850000     -69.15040000
H      -47.23180000     -33.16440000     -70.91390000
C      -45.41230000     -35.45390000     -70.67130000
H      -46.21400000     -35.81260000     -69.99450000
H      -46.00900000     -34.88300000     -71.36850000
C      -44.33720000     -34.63500000     -70.11720000
C      -43.02700000     -34.95740000     -70.03590000
C      -44.58950000     -33.19630000     -69.80310000
H      -42.61320000     -35.96830000     -70.18180000
C      -43.37400000     -32.63540000     -69.46620000
C      -45.66490000     -32.26420000     -69.65980000
C      -45.16560000     -31.05220000     -69.19720000
S      -41.93090000     -33.68030000     -69.68510000
S      -43.48770000     -30.99730000     -69.07440000
H      -45.77320000     -30.30460000     -68.67150000
