40
Properties=species:S:1:pos:R:3 #=T CELL(abcABC):=T 1.889726e+02=T 90.00000=T Traj:=T positionsangstrom=T Step:=T 0=T Bead:=T pbc="F F F"
C      -43.63620000     -30.76590000     -73.70190000
C      -44.57980000     -31.10030000     -72.70960000
C      -45.07740000     -32.42100000     -72.72710000
C      -44.57030000     -33.36100000     -73.65900000
C      -43.65050000     -32.96870000     -74.62820000
C      -43.14130000     -31.68730000     -74.65580000
H      -43.23470000     -29.78080000     -73.74610000
H      -45.80940000     -32.70720000     -71.97440000
H      -43.23020000     -33.73140000     -75.30540000
H      -42.34030000     -31.39890000     -75.31030000
C      -44.82700000     -34.79540000     -73.46420000
H      -45.17190000     -35.32460000     -74.33440000
H      -45.67810000     -34.92280000     -72.78060000
C      -44.90010000     -30.29750000     -71.52700000
H      -44.89570000     -29.24600000     -71.75610000
H      -45.85500000     -30.53220000     -71.12860000
S      -43.39270000     -35.67720000     -72.72260000
S      -43.69910000     -30.52500000     -70.09830000
C      -44.10570000     -36.85600000     -71.41750000
H      -44.88660000     -37.28780000     -72.01470000
H      -43.36950000     -37.60030000     -71.16880000
C      -43.30520000     -32.35590000     -69.87560000
H      -42.29120000     -32.36590000     -69.57660000
H      -43.46850000     -32.82520000     -70.85290000
C      -44.20820000     -33.06740000     -68.83320000
H      -43.69600000     -34.07730000     -68.63770000
H      -44.21900000     -32.56270000     -67.88490000
C      -44.73960000     -36.22520000     -70.16640000
H      -44.01300000     -35.49130000     -69.71460000
H      -44.86890000     -37.04210000     -69.40440000
C      -46.08930000     -35.53430000     -70.42310000
C      -47.15280000     -36.10510000     -71.07750000
C      -46.35800000     -34.19960000     -69.93420000
H      -47.25760000     -37.05880000     -71.59500000
C      -47.67570000     -33.80670000     -70.23720000
C      -45.65610000     -33.14220000     -69.27180000
C      -46.49500000     -32.08780000     -68.91400000
S      -48.47390000     -34.94490000     -71.21620000
S      -48.14340000     -32.28040000     -69.65030000
H      -46.20830000     -31.17820000     -68.40360000
