40
Properties=species:S:1:pos:R:3 #=T CELL(abcABC):=T 1.889726e+02=T 90.00000=T Traj:=T positionsangstrom=T Step:=T 0=T Bead:=T pbc="F F F"
C      -45.37710000     -32.00720000     -72.82580000
C      -46.64260000     -32.47640000     -73.10740000
C      -46.76500000     -33.78500000     -73.55020000
C      -45.65360000     -34.54540000     -73.88470000
C      -44.40940000     -33.96850000     -73.84450000
C      -44.24970000     -32.71370000     -73.26690000
H      -45.18780000     -30.96490000     -72.49980000
H      -47.73160000     -34.16530000     -73.79930000
H      -43.52430000     -34.53350000     -74.21700000
H      -43.27980000     -32.20700000     -73.17790000
C      -45.76780000     -35.98500000     -74.32890000
H      -44.82600000     -36.28030000     -74.89000000
H      -46.59710000     -36.12680000     -75.02420000
C      -47.94830000     -31.61080000     -72.94670000
H      -47.98880000     -31.11860000     -73.90590000
H      -48.85140000     -32.22370000     -72.77380000
S      -46.09800000     -37.28090000     -73.01960000
S      -47.83520000     -30.36540000     -71.55520000
C      -44.92890000     -36.65210000     -71.68210000
H      -44.54170000     -37.53570000     -71.11270000
H      -44.07160000     -36.28170000     -72.22810000
C      -48.09770000     -31.52480000     -70.06300000
H      -49.16680000     -31.84600000     -70.09740000
H      -48.12350000     -30.92370000     -69.12240000
C      -47.17840000     -32.71470000     -69.84770000
H      -47.46460000     -33.20000000     -68.87900000
H      -47.23220000     -33.40340000     -70.67700000
C      -45.46730000     -35.66220000     -70.65460000
H      -45.86490000     -36.12590000     -69.73180000
H      -46.28340000     -35.10250000     -71.02770000
C      -44.43360000     -34.67640000     -70.18710000
C      -43.16450000     -35.08760000     -70.08120000
C      -44.60960000     -33.26220000     -69.75770000
H      -42.75720000     -36.14470000     -70.09920000
C      -43.36240000     -32.70830000     -69.34550000
C      -45.70530000     -32.33520000     -69.60640000
C      -45.31840000     -31.08740000     -69.23840000
S      -42.03330000     -33.87460000     -69.46930000
S      -43.49340000     -31.04480000     -69.06610000
H      -45.99300000     -30.22650000     -68.83120000
