40
Properties=species:S:1:pos:R:3 #=T CELL(abcABC):=T 1.889726e+02=T 90.00000=T Traj:=T positionsangstrom=T Step:=T 0=T Bead:=T pbc="F F F"
C      -47.81490000     -32.64460000     -68.50010000
C      -47.51050000     -32.89740000     -69.83480000
C      -46.60500000     -33.86460000     -70.13930000
C      -45.97490000     -34.66610000     -69.18140000
C      -46.33900000     -34.45800000     -67.85770000
C      -47.23860000     -33.46860000     -67.53580000
H      -48.54620000     -31.85480000     -68.20250000
H      -46.25240000     -33.97190000     -71.18950000
H      -45.91060000     -35.02530000     -66.99920000
H      -47.45830000     -33.40330000     -66.47220000
C      -44.85260000     -35.55140000     -69.57210000
H      -44.79300000     -35.69680000     -70.70230000
H      -45.08130000     -36.59530000     -69.14960000
C      -48.09960000     -32.02610000     -70.95480000
H      -48.03170000     -32.60100000     -71.91810000
H      -49.13030000     -31.74080000     -70.83420000
S      -43.16130000     -34.91610000     -68.92700000
S      -47.36640000     -30.33700000     -71.06420000
C      -43.02040000     -33.22620000     -69.69490000
H      -44.01880000     -32.82960000     -69.45140000
H      -42.27400000     -32.81210000     -69.00630000
C      -45.44120000     -30.57400000     -71.00750000
H      -45.29850000     -31.36270000     -70.24380000
H      -45.09120000     -29.69730000     -70.47870000
C      -44.72630000     -30.79310000     -72.33250000
H      -45.14030000     -29.90230000     -72.93270000
H      -43.64960000     -30.63160000     -72.23430000
C      -42.48370000     -33.11630000     -71.11160000
H      -41.49870000     -33.48740000     -71.12300000
H      -42.57580000     -32.02090000     -71.25970000
C      -43.29270000     -33.89210000     -72.08960000
C      -42.98060000     -35.15570000     -72.48470000
C      -44.37720000     -33.42380000     -72.88280000
H      -42.20800000     -35.78580000     -72.11690000
C      -44.91280000     -34.34140000     -73.74800000
C      -44.96710000     -32.05090000     -73.11750000
C      -45.97580000     -32.09510000     -74.01910000
S      -44.10070000     -35.87650000     -73.66420000
S      -46.25900000     -33.70360000     -74.74710000
H      -46.50490000     -31.16290000     -74.24650000
