40
Properties=species:S:1:pos:R:3 #=T CELL(abcABC):=T 1.889726e+02=T 90.00000=T Traj:=T positionsangstrom=T Step:=T 0=T Bead:=T pbc="F F F"
C      -47.99510000     -32.95430000     -68.75090000
C      -47.50880000     -33.21190000     -70.06490000
C      -46.44320000     -34.13070000     -70.29350000
C      -45.92880000     -34.91070000     -69.23070000
C      -46.41870000     -34.65110000     -67.97210000
C      -47.38180000     -33.68650000     -67.67940000
H      -48.81480000     -32.16820000     -68.49050000
H      -46.01740000     -34.18170000     -71.30160000
H      -45.88010000     -35.31200000     -67.28640000
H      -47.75390000     -33.49160000     -66.66060000
C      -44.81350000     -35.83660000     -69.46130000
H      -44.86990000     -36.22230000     -70.51010000
H      -44.85830000     -36.80560000     -68.90470000
C      -48.09380000     -32.40700000     -71.12260000
H      -47.87280000     -32.81720000     -72.19080000
H      -49.17270000     -32.39320000     -71.02050000
S      -43.14770000     -35.11990000     -69.08430000
S      -47.61960000     -30.52960000     -71.00120000
C      -43.17490000     -33.28560000     -69.52770000
H      -44.27830000     -32.99980000     -69.58810000
H      -42.67910000     -32.65070000     -68.81010000
C      -45.76380000     -30.60820000     -70.61560000
H      -45.51220000     -31.44000000     -69.88580000
H      -45.56360000     -29.62840000     -70.13200000
C      -44.86010000     -30.66500000     -71.86920000
H      -45.00600000     -29.74400000     -72.49820000
H      -43.80300000     -30.66770000     -71.57510000
C      -42.51860000     -33.01510000     -70.91360000
H      -41.51090000     -33.45920000     -70.79080000
H      -42.44520000     -31.90290000     -71.07710000
C      -43.18490000     -33.69080000     -72.07190000
C      -42.87930000     -34.98620000     -72.50390000
C      -44.31090000     -33.14290000     -72.81450000
H      -42.06890000     -35.58530000     -72.07920000
C      -44.71450000     -34.01030000     -73.85270000
C      -45.05760000     -31.85920000     -72.81310000
C      -46.01310000     -31.87460000     -73.80320000
S      -43.83650000     -35.52810000     -73.84120000
S      -46.07000000     -33.33470000     -74.79370000
H      -46.80920000     -31.19930000     -74.02800000
