40
Properties=species:S:1:pos:R:3 #=T CELL(abcABC):=T 1.889726e+02=T 90.00000=T Traj:=T positionsangstrom=T Step:=T 0=T Bead:=T pbc="F F F"
C      -48.15790000     -33.17930000     -68.70660000
C      -47.63270000     -33.30540000     -69.98480000
C      -46.55610000     -34.20780000     -70.30360000
C      -45.89510000     -34.93050000     -69.29510000
C      -46.42040000     -34.84950000     -68.01380000
C      -47.48900000     -33.96490000     -67.72000000
H      -48.91240000     -32.36640000     -68.60920000
H      -46.22680000     -34.28050000     -71.31880000
H      -46.06820000     -35.51340000     -67.31220000
H      -47.82820000     -33.73000000     -66.70080000
C      -44.63410000     -35.76290000     -69.69170000
H      -44.50520000     -35.74130000     -70.78540000
H      -44.62810000     -36.73910000     -69.25350000
C      -48.15740000     -32.48850000     -71.14430000
H      -47.76500000     -32.79120000     -72.03460000
H      -49.24620000     -32.43380000     -71.25000000
S      -43.11390000     -35.01220000     -68.99020000
S      -47.56720000     -30.69500000     -71.07730000
C      -43.14870000     -33.25660000     -69.63680000
H      -44.26450000     -33.13520000     -69.59040000
H      -42.68410000     -32.67500000     -68.89010000
C      -45.83180000     -30.91660000     -70.60160000
H      -45.70720000     -31.88730000     -70.15640000
H      -45.65170000     -30.21520000     -69.80470000
C      -44.87580000     -30.61770000     -71.79480000
H      -45.20530000     -29.67470000     -72.15020000
H      -43.88300000     -30.43730000     -71.29910000
C      -42.41660000     -33.02570000     -70.91970000
H      -41.41770000     -33.44280000     -70.88300000
H      -42.21230000     -31.99530000     -71.03170000
C      -43.19830000     -33.60270000     -72.04470000
C      -42.84790000     -34.87100000     -72.49540000
C      -44.25120000     -33.01720000     -72.81120000
H      -42.07300000     -35.50570000     -72.05860000
C      -44.73970000     -33.87400000     -73.83140000
C      -44.93820000     -31.74000000     -72.80360000
C      -45.93600000     -31.70320000     -73.75390000
S      -43.93050000     -35.44830000     -73.80790000
S      -46.04290000     -33.18910000     -74.75960000
H      -46.47160000     -30.83200000     -74.12580000
