40
Properties=species:S:1:pos:R:3 #=T CELL(abcABC):=T 1.889726e+02=T 90.00000=T Traj:=T positionsangstrom=T Step:=T 0=T Bead:=T pbc="F F F"
C      -46.36190000     -33.59880000     -73.78370000
C      -47.27120000     -34.13290000     -72.87370000
C      -47.09240000     -35.48520000     -72.44640000
C      -45.98800000     -36.19440000     -72.81020000
C      -44.98340000     -35.58750000     -73.64250000
C      -45.19720000     -34.35310000     -74.09880000
H      -46.43290000     -32.49180000     -74.03580000
H      -47.74950000     -36.05700000     -71.88610000
H      -43.99460000     -35.99700000     -73.89550000
H      -44.56790000     -33.90680000     -74.83800000
C      -45.70130000     -37.65390000     -72.34390000
H      -45.14310000     -38.27250000     -73.05260000
H      -46.65580000     -38.21290000     -72.15760000
C      -48.58770000     -33.51910000     -72.51220000
H      -49.24610000     -33.42110000     -73.43250000
H      -49.09310000     -34.10370000     -71.73800000
S      -44.71650000     -37.59660000     -70.75530000
S      -48.58320000     -31.76800000     -71.80720000
C      -43.80400000     -35.95480000     -70.75660000
H      -42.82060000     -36.23080000     -70.24830000
H      -43.49230000     -35.70070000     -71.78070000
C      -48.24560000     -32.03540000     -70.00320000
H      -48.94840000     -32.87210000     -69.68280000
H      -48.47780000     -31.02540000     -69.62280000
C      -46.80770000     -32.46170000     -69.70210000
H      -46.67600000     -32.59140000     -68.61900000
H      -46.70120000     -33.47550000     -70.03760000
C      -44.44800000     -34.76210000     -70.13770000
H      -44.58630000     -34.95430000     -69.06250000
H      -45.45430000     -34.73190000     -70.61000000
C      -43.69080000     -33.45450000     -70.28210000
C      -42.36870000     -33.35970000     -70.58510000
C      -44.32980000     -32.12270000     -70.29280000
H      -41.56920000     -34.12540000     -70.46460000
C      -43.44770000     -31.08440000     -70.45120000
C      -45.70610000     -31.58270000     -70.21300000
C      -45.74590000     -30.21890000     -70.37330000
S      -41.81060000     -31.64060000     -70.77070000
S      -44.12760000     -29.48380000     -70.32480000
H      -46.62420000     -29.60090000     -70.35220000
