40
Properties=species:S:1:pos:R:3 #=T CELL(abcABC):=T 1.889726e+02=T 90.00000=T Traj:=T positionsangstrom=T Step:=T 0=T Bead:=T pbc="F F F"
C      -48.24320000     -33.69870000     -68.92170000
C      -47.74130000     -33.64130000     -70.25410000
C      -46.60030000     -34.44020000     -70.59530000
C      -46.03660000     -35.28430000     -69.63420000
C      -46.48500000     -35.31870000     -68.31710000
C      -47.61520000     -34.56270000     -67.98720000
H      -49.17010000     -33.22940000     -68.61000000
H      -46.12280000     -34.34190000     -71.58330000
H      -45.99700000     -35.88730000     -67.52590000
H      -47.90230000     -34.78920000     -66.96270000
C      -44.77300000     -36.06180000     -69.97500000
H      -44.60710000     -36.24220000     -71.05960000
H      -44.87400000     -37.10700000     -69.65360000
C      -48.24580000     -32.61690000     -71.26530000
H      -47.79200000     -32.84650000     -72.24450000
H      -49.36520000     -32.79970000     -71.54190000
S      -43.33940000     -35.32950000     -69.15860000
S      -47.91980000     -30.94250000     -70.67000000
C      -43.51400000     -33.51670000     -69.23130000
H      -44.58170000     -33.23440000     -69.20790000
H      -43.10300000     -33.18160000     -68.31840000
C      -46.12510000     -30.88200000     -70.27380000
H      -45.72630000     -31.71770000     -69.68440000
H      -46.08250000     -30.00480000     -69.64270000
C      -45.18410000     -30.59540000     -71.46320000
H      -45.44790000     -29.50260000     -71.85140000
H      -44.18350000     -30.48670000     -71.03460000
C      -42.66530000     -32.93830000     -70.46440000
H      -41.55980000     -33.08090000     -70.28520000
H      -42.85970000     -31.90890000     -70.47930000
C      -43.17770000     -33.39470000     -71.78720000
C      -42.58190000     -34.48310000     -72.44890000
C      -44.21190000     -32.78500000     -72.62120000
H      -41.73790000     -35.13500000     -72.11620000
C      -44.33520000     -33.37430000     -73.88700000
C      -45.04370000     -31.57600000     -72.60660000
C      -45.75660000     -31.38820000     -73.77420000
S      -43.39040000     -34.85780000     -73.92950000
S      -45.46480000     -32.66510000     -74.94250000
H      -46.41560000     -30.55360000     -73.89960000
