40
Properties=species:S:1:pos:R:3 #=T CELL(abcABC):=T 1.889726e+02=T 90.00000=T Traj:=T positionsangstrom=T Step:=T 0=T Bead:=T pbc="F F F"
C      -46.52560000     -33.51640000     -73.65240000
C      -47.45340000     -34.18030000     -72.83770000
C      -47.17160000     -35.50090000     -72.46870000
C      -46.00310000     -36.18430000     -72.96960000
C      -45.16940000     -35.52550000     -73.86200000
C      -45.41290000     -34.17660000     -74.19990000
H      -46.69350000     -32.54040000     -74.06330000
H      -47.82780000     -35.84640000     -71.68280000
H      -44.31180000     -36.00740000     -74.26380000
H      -44.64200000     -33.67540000     -74.84400000
C      -45.64440000     -37.53950000     -72.39950000
H      -45.10560000     -38.10590000     -73.20180000
H      -46.48370000     -38.08400000     -72.04150000
C      -48.70780000     -33.48000000     -72.49480000
H      -49.33410000     -33.40380000     -73.41000000
H      -49.23530000     -34.10350000     -71.80120000
S      -44.63700000     -37.44860000     -70.83050000
S      -48.42140000     -31.76760000     -72.00040000
C      -43.67010000     -35.90440000     -70.92300000
H      -42.80490000     -36.09640000     -70.30880000
H      -43.46330000     -35.67030000     -71.93410000
C      -48.24400000     -31.78920000     -70.15700000
H      -49.06990000     -32.29800000     -69.74430000
H      -48.26320000     -30.72100000     -69.81980000
C      -46.95670000     -32.47750000     -69.70160000
H      -47.09180000     -32.79160000     -68.63470000
H      -46.85410000     -33.35610000     -70.37630000
C      -44.46650000     -34.81030000     -70.39130000
H      -44.93840000     -35.02230000     -69.44560000
H      -45.33110000     -34.68730000     -71.04900000
C      -43.71550000     -33.48820000     -70.32450000
C      -42.36980000     -33.44320000     -70.51590000
C      -44.29700000     -32.17740000     -70.19360000
H      -41.65440000     -34.22030000     -70.81370000
C      -43.33890000     -31.15850000     -70.36130000
C      -45.66690000     -31.67750000     -69.87330000
C      -45.67490000     -30.29730000     -69.88120000
S      -41.72440000     -31.80070000     -70.43990000
S      -44.15010000     -29.60890000     -70.37860000
H      -46.35920000     -29.58540000     -69.56140000
