40
Properties=species:S:1:pos:R:3 #=T CELL(abcABC):=T 1.889726e+02=T 90.00000=T Traj:=T positionsangstrom=T Step:=T 0=T Bead:=T pbc="F F F"
C      -45.26910000     -30.36140000     -72.23190000
C      -44.07170000     -30.93700000     -72.83580000
C      -42.88510000     -31.09690000     -72.11460000
C      -42.96380000     -30.80280000     -70.70480000
C      -44.02900000     -30.09200000     -70.19000000
C      -45.19070000     -29.90840000     -70.92290000
H      -46.02900000     -30.11860000     -72.92120000
H      -41.95420000     -31.57930000     -72.38820000
H      -43.98830000     -29.92060000     -69.14600000
H      -45.99630000     -29.50260000     -70.40080000
C      -41.89070000     -31.22260000     -69.78820000
H      -41.94850000     -30.56040000     -68.85720000
H      -40.85580000     -31.30770000     -70.22600000
C      -44.00640000     -31.15730000     -74.34760000
H      -44.65480000     -30.54510000     -74.94750000
H      -42.98400000     -30.95830000     -74.64490000
S      -42.06810000     -32.98080000     -69.04120000
S      -44.37810000     -32.94620000     -75.06420000
C      -43.84360000     -33.36640000     -68.84360000
H      -43.83370000     -34.26200000     -68.21840000
H      -44.30400000     -32.55550000     -68.18280000
C      -45.74390000     -33.50070000     -73.90040000
H      -46.67270000     -33.38870000     -74.49550000
H      -45.82440000     -32.76730000     -73.02890000
C      -45.40170000     -34.86350000     -73.33140000
H      -45.28990000     -35.58130000     -74.11790000
H      -44.48820000     -34.90030000     -72.72580000
C      -44.48420000     -33.82480000     -70.22390000
H      -43.79680000     -34.68440000     -70.44100000
H      -44.46280000     -33.04520000     -71.01810000
C      -45.87780000     -34.37080000     -69.96620000
C      -46.57010000     -34.19780000     -68.79170000
C      -46.65450000     -35.07450000     -70.99170000
H      -46.16540000     -33.74290000     -67.93580000
C      -47.79690000     -35.57830000     -70.43970000
C      -46.55310000     -35.33200000     -72.41070000
C      -47.68160000     -35.95920000     -72.92060000
S      -48.14790000     -35.15930000     -68.75420000
S      -48.81810000     -36.37050000     -71.61330000
H      -47.80400000     -36.32790000     -73.92700000
