40
Properties=species:S:1:pos:R:3 #=T CELL(abcABC):=T 1.889726e+02=T 90.00000=T Traj:=T positionsangstrom=T Step:=T 0=T Bead:=T pbc="F F F"
C      -48.35730000     -34.73980000     -69.78160000
C      -47.67030000     -34.13950000     -70.83260000
C      -46.48550000     -34.68610000     -71.31680000
C      -46.01890000     -35.81930000     -70.61940000
C      -46.64780000     -36.38490000     -69.52730000
C      -47.90380000     -35.93650000     -69.20780000
H      -49.32020000     -34.35600000     -69.41020000
H      -45.87710000     -34.29180000     -72.04460000
H      -46.21350000     -37.25960000     -69.06160000
H      -48.48230000     -36.56320000     -68.42150000
C      -44.56900000     -36.23020000     -70.87300000
H      -44.10650000     -35.84550000     -71.80380000
H      -44.44300000     -37.34520000     -70.88540000
C      -48.17840000     -32.89520000     -71.55000000
H      -47.61330000     -32.87940000     -72.52400000
H      -49.22560000     -33.09670000     -71.91920000
S      -43.47380000     -35.72570000     -69.42830000
S      -48.31610000     -31.27210000     -70.66870000
C      -44.02720000     -34.08750000     -68.93410000
H      -45.16880000     -34.06080000     -68.84870000
H      -43.66050000     -33.93440000     -67.91140000
C      -46.65070000     -31.08470000     -69.86950000
H      -46.34180000     -32.10890000     -69.67170000
H      -46.87660000     -30.55230000     -68.89030000
C      -45.61810000     -30.51450000     -70.81600000
H      -46.00150000     -29.50830000     -71.18270000
H      -44.75580000     -30.25950000     -70.17670000
C      -43.42570000     -32.89090000     -69.67340000
H      -42.38330000     -32.79680000     -69.32000000
H      -43.88810000     -31.97180000     -69.31650000
C      -43.29740000     -33.02240000     -71.17280000
C      -42.37610000     -33.81910000     -71.71940000
C      -44.19910000     -32.31800000     -72.14550000
H      -41.46170000     -34.28580000     -71.31200000
C      -43.82850000     -32.59660000     -73.45680000
C      -45.19630000     -31.26030000     -72.06550000
C      -45.73840000     -30.96560000     -73.27010000
S      -42.59560000     -33.75760000     -73.50590000
S      -44.88380000     -31.81270000     -74.58410000
H      -46.51510000     -30.20400000     -73.57340000
