40
Properties=species:S:1:pos:R:3 #=T CELL(abcABC):=T 1.889726e+02=T 90.00000=T Traj:=T positionsangstrom=T Step:=T 0=T Bead:=T pbc="F F F"
C      -46.33170000     -33.24650000     -73.27210000
C      -47.17550000     -34.21830000     -72.66640000
C      -46.66300000     -35.45060000     -72.31480000
C      -45.28540000     -35.72860000     -72.48940000
C      -44.41720000     -34.72400000     -72.97510000
C      -44.97300000     -33.46830000     -73.30450000
H      -46.72830000     -32.32560000     -73.55030000
H      -47.30000000     -36.19330000     -71.76690000
H      -43.30140000     -34.90930000     -73.04420000
H      -44.29140000     -32.73290000     -73.58250000
C      -44.64470000     -37.06570000     -72.13230000
H      -43.56090000     -37.05450000     -72.41740000
H      -45.11940000     -37.91550000     -72.62030000
C      -48.65610000     -33.82690000     -72.50450000
H      -49.20000000     -34.03280000     -73.45320000
H      -49.21430000     -34.48830000     -71.85310000
S      -44.68210000     -37.34040000     -70.26550000
S      -48.89360000     -32.09760000     -71.93920000
C      -43.53990000     -35.98160000     -69.76450000
H      -43.21320000     -36.07410000     -68.72130000
H      -42.66350000     -35.74820000     -70.37750000
C      -48.37290000     -32.27480000     -70.11270000
H      -49.03910000     -32.99990000     -69.67250000
H      -48.64240000     -31.33070000     -69.63620000
C      -46.97370000     -32.70540000     -69.86210000
H      -46.74840000     -32.69560000     -68.79240000
H      -46.88870000     -33.75680000     -70.09880000
C      -44.37040000     -34.70370000     -69.53770000
H      -44.51520000     -34.66000000     -68.43410000
H      -45.36310000     -34.65860000     -70.01880000
C      -43.77180000     -33.40690000     -70.06810000
C      -42.41860000     -33.27050000     -70.26900000
C      -44.48820000     -32.29190000     -70.56810000
H      -41.68980000     -33.98380000     -69.96160000
C      -43.68770000     -31.28930000     -71.09070000
C      -45.88510000     -31.87540000     -70.54430000
C      -46.09410000     -30.67470000     -71.11270000
S      -41.92780000     -31.67540000     -71.01540000
S      -44.61290000     -29.94860000     -71.65170000
H      -46.97670000     -30.17340000     -71.30150000
