40
Properties=species:S:1:pos:R:3 #=T CELL(abcABC):=T 1.889726e+02=T 90.00000=T Traj:=T positionsangstrom=T Step:=T 0=T Bead:=T pbc="F F F"
C      -48.31950000     -35.05870000     -70.14340000
C      -47.52210000     -34.57340000     -71.19470000
C      -46.14390000     -34.96590000     -71.24610000
C      -45.70200000     -35.95170000     -70.39390000
C      -46.53280000     -36.51500000     -69.35940000
C      -47.85440000     -36.08670000     -69.27110000
H      -49.38510000     -34.86620000     -70.10380000
H      -45.42190000     -34.54420000     -71.98480000
H      -46.14650000     -37.27290000     -68.66020000
H      -48.62190000     -36.43830000     -68.52890000
C      -44.21610000     -36.29100000     -70.33600000
H      -43.78320000     -36.14420000     -71.30730000
H      -44.13500000     -37.37030000     -70.19690000
C      -48.05860000     -33.43730000     -72.04550000
H      -47.39240000     -33.12350000     -72.80130000
H      -48.95640000     -33.74720000     -72.56950000
S      -43.32040000     -35.55620000     -68.82570000
S      -48.28700000     -31.81120000     -71.06000000
C      -43.69540000     -33.74760000     -69.00070000
H      -44.76110000     -33.49160000     -69.08130000
H      -43.43770000     -33.40200000     -67.94090000
C      -46.98940000     -31.79460000     -69.83890000
H      -46.79100000     -32.80130000     -69.53640000
H      -47.49960000     -31.38970000     -68.89440000
C      -45.61570000     -31.11820000     -70.16740000
H      -45.79280000     -30.02190000     -70.00100000
H      -44.88200000     -31.41270000     -69.43050000
C      -42.85960000     -32.96320000     -69.99960000
H      -41.82550000     -33.30410000     -69.81410000
H      -42.90490000     -31.85270000     -69.70410000
C      -43.27370000     -33.03170000     -71.45810000
C      -42.45540000     -33.67530000     -72.44550000
C      -44.22270000     -32.19390000     -72.13060000
H      -41.67900000     -34.31420000     -72.07860000
C      -44.20720000     -32.22110000     -73.53590000
C      -45.20780000     -31.26690000     -71.63680000
C      -45.87440000     -30.57130000     -72.62720000
S      -42.94310000     -33.29600000     -74.10340000
S      -45.32650000     -31.00120000     -74.23100000
H      -46.71960000     -29.87650000     -72.59460000
