40
Properties=species:S:1:pos:R:3 #=T CELL(abcABC):=T 1.889726e+02=T 90.00000=T Traj:=T positionsangstrom=T Step:=T 0=T Bead:=T pbc="F F F"
C      -48.33130000     -35.24700000     -70.07210000
C      -47.72460000     -34.39130000     -71.02290000
C      -46.44050000     -34.59380000     -71.52650000
C      -45.62180000     -35.68240000     -71.03270000
C      -46.22970000     -36.53580000     -70.07190000
C      -47.60170000     -36.37260000     -69.69130000
H      -49.37350000     -35.00350000     -69.73610000
H      -45.91530000     -33.89520000     -72.21100000
H      -45.79950000     -37.44880000     -69.72000000
H      -48.14560000     -37.07170000     -69.09940000
C      -44.21970000     -35.94100000     -71.61610000
H      -44.06580000     -35.25520000     -72.45950000
H      -44.15350000     -36.92990000     -72.02250000
C      -48.53270000     -33.19400000     -71.51760000
H      -48.00040000     -32.71210000     -72.31430000
H      -49.55240000     -33.50790000     -71.81410000
S      -43.08290000     -35.83610000     -70.16630000
S      -48.68840000     -31.91590000     -70.18940000
C      -43.60330000     -34.40020000     -69.14220000
H      -44.70500000     -34.32040000     -69.01140000
H      -43.13430000     -34.59660000     -68.16020000
C      -46.96750000     -31.99650000     -69.52630000
H      -46.53450000     -32.93730000     -69.62600000
H      -47.10730000     -31.82470000     -68.47180000
C      -45.87560000     -31.00660000     -70.07860000
H      -46.20120000     -29.93440000     -69.98710000
H      -45.07420000     -31.15330000     -69.36270000
C      -42.90530000     -33.04000000     -69.67190000
H      -41.86460000     -33.16870000     -69.39610000
H      -43.43390000     -32.24600000     -69.02720000
C      -43.19420000     -32.72960000     -71.09510000
C      -42.18040000     -33.13820000     -71.92690000
C      -44.35860000     -32.21940000     -71.80450000
H      -41.19760000     -33.39440000     -71.51460000
C      -44.09170000     -32.21960000     -73.18910000
C      -45.46700000     -31.33230000     -71.45300000
C      -46.06420000     -30.78400000     -72.54680000
S      -42.49180000     -32.81890000     -73.64650000
S      -45.33240000     -31.32770000     -74.12010000
H      -46.97950000     -30.14310000     -72.56160000
