40
Properties=species:S:1:pos:R:3 #=T CELL(abcABC):=T 1.889726e+02=T 90.00000=T Traj:=T positionsangstrom=T Step:=T 0=T Bead:=T pbc="F F F"
C      -48.31520000     -35.22740000     -69.74900000
C      -47.80030000     -34.52740000     -70.84880000
C      -46.51320000     -34.79990000     -71.39510000
C      -45.75340000     -35.83690000     -70.94490000
C      -46.23440000     -36.59680000     -69.81140000
C      -47.44020000     -36.24320000     -69.23270000
H      -49.29760000     -34.86450000     -69.39340000
H      -46.01920000     -34.18260000     -72.18050000
H      -45.63190000     -37.33600000     -69.27950000
H      -47.74110000     -36.81460000     -68.27260000
C      -44.33570000     -36.08800000     -71.47930000
H      -44.20170000     -35.52210000     -72.42640000
H      -44.18850000     -37.14510000     -71.75480000
C      -48.53130000     -33.41980000     -71.57850000
H      -48.07810000     -33.18600000     -72.51650000
H      -49.53370000     -33.61040000     -71.77420000
S      -43.04800000     -35.79660000     -70.14870000
S      -48.62920000     -31.85120000     -70.61050000
C      -43.72180000     -34.29000000     -69.29890000
H      -44.74900000     -34.21930000     -69.63690000
H      -43.64950000     -34.55500000     -68.23630000
C      -47.01130000     -31.92780000     -69.61430000
H      -46.62620000     -33.00980000     -69.60590000
H      -47.34900000     -31.55870000     -68.62480000
C      -45.94970000     -30.83010000     -70.09810000
H      -46.54970000     -29.94250000     -70.05980000
H      -45.12270000     -30.62460000     -69.40180000
C      -43.02980000     -32.94870000     -69.61120000
H      -41.96220000     -32.99700000     -69.33730000
H      -43.47440000     -32.21920000     -68.89750000
C      -43.11450000     -32.63430000     -71.08570000
C      -42.22990000     -33.24700000     -71.94670000
C      -44.17200000     -31.96530000     -71.76100000
H      -41.51890000     -34.02760000     -71.70730000
C      -44.01660000     -32.07210000     -73.14840000
C      -45.40290000     -31.21980000     -71.48480000
C      -45.95330000     -30.75010000     -72.65010000
S      -42.65870000     -32.94000000     -73.64350000
S      -45.17930000     -31.37600000     -74.20630000
H      -46.71920000     -30.03940000     -72.76410000
