40
Properties=species:S:1:pos:R:3 #=T CELL(abcABC):=T 1.889726e+02=T 90.00000=T Traj:=T positionsangstrom=T Step:=T 0=T Bead:=T pbc="F F F"
C      -48.34100000     -35.31250000     -69.87220000
C      -47.80430000     -34.55820000     -70.94760000
C      -46.52970000     -34.88520000     -71.43340000
C      -45.78470000     -35.98630000     -70.85790000
C      -46.34430000     -36.68420000     -69.75500000
C      -47.58310000     -36.28730000     -69.21730000
H      -49.29560000     -35.07420000     -69.44110000
H      -46.20580000     -34.24740000     -72.19510000
H      -45.72780000     -37.53030000     -69.40920000
H      -48.04900000     -36.85750000     -68.36220000
C      -44.33600000     -36.22640000     -71.26430000
H      -44.08550000     -35.80980000     -72.22160000
H      -44.28660000     -37.32640000     -71.34810000
C      -48.58400000     -33.43910000     -71.53640000
H      -48.11960000     -33.26530000     -72.50050000
H      -49.74670000     -33.67340000     -71.60010000
S      -43.11280000     -35.74130000     -69.97630000
S      -48.52480000     -31.83910000     -70.53280000
C      -43.61080000     -34.08570000     -69.20610000
H      -44.70930000     -34.00090000     -69.23420000
H      -43.36980000     -34.13530000     -68.14400000
C      -46.88470000     -31.68970000     -69.56220000
H      -46.57450000     -32.73200000     -69.34370000
H      -47.06920000     -31.36010000     -68.59750000
C      -45.83980000     -30.81410000     -70.18690000
H      -46.19070000     -29.75250000     -70.19490000
H      -44.98960000     -30.72140000     -69.40750000
C      -43.03080000     -32.77890000     -69.68040000
H      -41.91230000     -32.90120000     -69.43460000
H      -43.36250000     -31.93580000     -69.08410000
C      -43.06410000     -32.61910000     -71.18220000
C      -42.15540000     -33.20480000     -72.00500000
C      -44.21880000     -32.06720000     -71.94570000
H      -41.25440000     -33.72650000     -71.74810000
C      -44.02430000     -32.15930000     -73.31270000
C      -45.35990000     -31.20490000     -71.58510000
C      -46.03990000     -30.90820000     -72.71690000
S      -42.55500000     -33.01160000     -73.68080000
S      -45.33660000     -31.28080000     -74.24680000
H      -46.89930000     -30.28030000     -72.78840000
