40
Properties=species:S:1:pos:R:3 #=T CELL(abcABC):=T 1.889726e+02=T 90.00000=T Traj:=T positionsangstrom=T Step:=T 0=T Bead:=T pbc="F F F"
C      -48.50490000     -35.43710000     -70.48660000
C      -47.65390000     -34.41160000     -70.97640000
C      -46.34660000     -34.69720000     -71.30440000
C      -45.74480000     -35.94970000     -71.02090000
C      -46.61560000     -36.97670000     -70.51960000
C      -47.97640000     -36.71930000     -70.33440000
H      -49.65640000     -35.21300000     -70.28450000
H      -45.67370000     -33.94830000     -71.80340000
H      -46.28760000     -38.02650000     -70.42860000
H      -48.69430000     -37.49680000     -70.18320000
C      -44.29110000     -36.24340000     -71.27480000
H      -43.98780000     -35.51190000     -72.06360000
H      -44.07360000     -37.33790000     -71.53310000
C      -48.23330000     -33.12180000     -71.56790000
H      -47.69260000     -32.76950000     -72.45510000
H      -49.28930000     -33.34540000     -71.79470000
S      -43.16440000     -35.95520000     -69.76920000
S      -48.35920000     -31.92030000     -70.15610000
C      -43.55410000     -34.25300000     -69.18840000
H      -44.70490000     -34.09940000     -69.12770000
H      -43.32800000     -34.33380000     -68.13600000
C      -46.77180000     -31.95120000     -69.25320000
H      -46.37100000     -33.01310000     -69.19650000
H      -46.94850000     -31.78220000     -68.20320000
C      -45.69340000     -30.96790000     -69.81590000
H      -46.31030000     -29.99160000     -69.83500000
H      -44.83340000     -30.91440000     -69.13250000
C      -42.72490000     -33.19520000     -69.86440000
H      -41.62920000     -33.50800000     -69.83220000
H      -42.63410000     -32.31940000     -69.20610000
C      -43.07040000     -32.89990000     -71.32630000
C      -42.29000000     -33.34160000     -72.40580000
C      -44.24240000     -32.08760000     -71.77230000
H      -41.42460000     -33.97840000     -72.55940000
C      -44.19870000     -31.94990000     -73.15960000
C      -45.23180000     -31.14220000     -71.25000000
C      -45.89690000     -30.41780000     -72.18620000
S      -42.87420000     -32.79220000     -74.02880000
S      -45.36950000     -30.82690000     -73.85530000
H      -46.62300000     -29.62010000     -72.07750000
