40
Properties=species:S:1:pos:R:3 #=T CELL(abcABC):=T 1.889726e+02=T 90.00000=T Traj:=T positionsangstrom=T Step:=T 0=T Bead:=T pbc="F F F"
C      -47.44460000     -29.88340000     -70.81460000
C      -48.04790000     -31.11750000     -70.68380000
C      -48.33110000     -31.91340000     -71.84780000
C      -47.72870000     -31.53860000     -73.06950000
C      -47.11390000     -30.28600000     -73.21420000
C      -47.03080000     -29.42020000     -72.09750000
H      -47.20070000     -29.23460000     -69.97260000
H      -48.92460000     -32.85200000     -71.63950000
H      -46.95290000     -29.98960000     -74.32000000
H      -46.68740000     -28.39750000     -72.25850000
C      -47.87910000     -32.40180000     -74.26010000
H      -47.52760000     -31.87210000     -75.15370000
H      -48.93860000     -32.46070000     -74.53390000
C      -48.50610000     -31.60200000     -69.35080000
H      -48.21380000     -30.92270000     -68.55740000
H      -49.57050000     -31.67280000     -69.28410000
S      -47.29740000     -34.16130000     -74.07480000
S      -47.95260000     -33.28530000     -68.87520000
C      -45.69010000     -33.76400000     -73.24410000
H      -45.05770000     -33.03910000     -73.80000000
H      -45.88070000     -33.20760000     -72.34170000
C      -46.30140000     -33.22620000     -69.43430000
H      -45.65410000     -32.61720000     -68.79580000
H      -46.23320000     -32.80890000     -70.42350000
C      -45.60890000     -34.59870000     -69.42760000
H      -45.83950000     -35.05250000     -68.49460000
H      -45.97020000     -35.39060000     -70.11210000
C      -44.95720000     -35.06090000     -72.95510000
H      -44.71670000     -35.56870000     -73.90590000
H      -45.61360000     -35.69750000     -72.33710000
C      -43.58800000     -34.91890000     -72.29750000
C      -42.50150000     -35.08270000     -73.10710000
C      -43.34520000     -34.63220000     -70.91520000
H      -42.45250000     -35.26990000     -74.14260000
C      -41.92210000     -34.61800000     -70.76460000
C      -44.02770000     -34.67580000     -69.60880000
C      -43.20230000     -34.30900000     -68.57780000
S      -41.02190000     -34.91200000     -72.20720000
S      -41.46790000     -34.43070000     -69.04850000
H      -43.35650000     -34.21450000     -67.53530000
