40
Properties=species:S:1:pos:R:3 #=T CELL(abcABC):=T 1.889726e+02=T 90.00000=T Traj:=T positionsangstrom=T Step:=T 0=T Bead:=T pbc="F F F"
C      -47.24410000     -30.82050000     -73.02520000
C      -47.40090000     -32.12270000     -73.57130000
C      -46.33400000     -32.76720000     -74.24350000
C      -45.10770000     -32.02710000     -74.46290000
C      -45.01150000     -30.68850000     -74.00040000
C      -46.05080000     -30.06180000     -73.33960000
H      -48.05950000     -30.40450000     -72.43220000
H      -46.36220000     -33.79470000     -74.53860000
H      -44.03850000     -30.04940000     -74.12810000
H      -45.88130000     -29.09620000     -72.97520000
C      -43.85590000     -32.75360000     -74.97070000
H      -43.15610000     -32.02320000     -75.25920000
H      -44.07060000     -33.37850000     -75.82640000
C      -48.66850000     -32.86900000     -73.21670000
H      -49.04960000     -32.46600000     -72.26010000
H      -49.37720000     -32.58750000     -73.97590000
S      -43.45500000     -33.93690000     -73.62880000
S      -48.61720000     -34.70810000     -73.03500000
C      -42.63960000     -32.95350000     -72.28910000
H      -41.87410000     -33.48050000     -71.70980000
H      -42.10440000     -32.13720000     -72.71770000
C      -47.82440000     -34.79190000     -71.34440000
H      -47.84770000     -35.84270000     -71.15440000
H      -48.56800000     -34.38060000     -70.62210000
C      -46.39380000     -34.23610000     -71.21340000
H      -45.79410000     -34.52110000     -72.06970000
H      -46.56590000     -33.16820000     -71.20320000
C      -43.64550000     -32.32010000     -71.25300000
H      -44.65490000     -32.35280000     -71.63970000
H      -43.24710000     -31.26810000     -71.01190000
C      -43.57470000     -32.98990000     -69.91180000
C      -42.62470000     -32.64670000     -68.98450000
C      -44.49270000     -33.94920000     -69.38360000
H      -41.76510000     -32.06490000     -69.22330000
C      -44.24450000     -34.33160000     -68.08030000
C      -45.79590000     -34.45550000     -69.81880000
C      -46.43470000     -35.13050000     -68.81270000
S      -42.87620000     -33.48910000     -67.44870000
S      -45.46710000     -35.13010000     -67.30890000
H      -47.35250000     -35.65200000     -68.94520000
