40
Properties=species:S:1:pos:R:3 #=T CELL(abcABC):=T 1.889726e+02=T 90.00000=T Traj:=T positionsangstrom=T Step:=T 0=T Bead:=T pbc="F F F"
C      -47.26130000     -30.88400000     -73.06680000
C      -47.36970000     -32.17890000     -73.55080000
C      -46.23300000     -32.83570000     -74.15100000
C      -45.08500000     -32.05100000     -74.33100000
C      -45.09880000     -30.66280000     -74.12090000
C      -46.15930000     -30.10380000     -73.40940000
H      -48.12650000     -30.52200000     -72.57860000
H      -46.20560000     -33.85100000     -74.47260000
H      -44.29240000     -30.03990000     -74.48670000
H      -46.06800000     -29.02750000     -73.21720000
C      -43.80760000     -32.72630000     -74.90500000
H      -43.06950000     -31.88290000     -75.10500000
H      -43.99720000     -33.38970000     -75.78950000
C      -48.69300000     -32.95960000     -73.29120000
H      -49.31390000     -32.53180000     -72.52580000
H      -49.30000000     -32.97070000     -74.23880000
S      -43.13100000     -33.98480000     -73.78060000
S      -48.49030000     -34.86360000     -73.02130000
C      -42.54960000     -32.98360000     -72.23710000
H      -42.01660000     -33.78580000     -71.73190000
H      -41.83360000     -32.20670000     -72.61610000
C      -47.88540000     -35.03130000     -71.26150000
H      -47.53920000     -36.10690000     -71.34030000
H      -48.55860000     -35.06510000     -70.40500000
C      -46.72910000     -34.06130000     -70.97030000
H      -46.05890000     -34.01060000     -71.83080000
H      -47.22190000     -33.01630000     -70.97090000
C      -43.58490000     -32.28320000     -71.28340000
H      -44.58560000     -32.26870000     -71.65650000
H      -43.25250000     -31.24560000     -71.37770000
C      -43.73420000     -32.74850000     -69.84030000
C      -42.74510000     -32.50920000     -68.94590000
C      -44.77420000     -33.59790000     -69.27340000
H      -41.92630000     -31.82530000     -69.15430000
C      -44.40520000     -34.08130000     -68.03490000
C      -45.99820000     -34.24540000     -69.69400000
C      -46.40500000     -35.23740000     -68.84340000
S      -42.88410000     -33.28740000     -67.42790000
S      -45.44920000     -35.37020000     -67.43190000
H      -47.06840000     -35.97900000     -69.02920000
