40
Properties=species:S:1:pos:R:3 #=T CELL(abcABC):=T 1.889726e+02=T 90.00000=T Traj:=T positionsangstrom=T Step:=T 0=T Bead:=T pbc="F F F"
C      -47.22830000     -30.50790000     -73.08180000
C      -47.37430000     -31.86120000     -73.55890000
C      -46.28910000     -32.46670000     -74.15990000
C      -45.00250000     -31.84540000     -74.25970000
C      -44.81280000     -30.61360000     -73.66370000
C      -45.94640000     -29.95100000     -73.12810000
H      -47.98290000     -29.93910000     -72.55590000
H      -46.37100000     -33.42490000     -74.55580000
H      -43.85330000     -30.18560000     -73.65020000
H      -45.68720000     -29.02700000     -72.63220000
C      -43.87650000     -32.57780000     -74.84040000
H      -43.04790000     -31.90640000     -75.00210000
H      -44.12950000     -32.94470000     -75.86240000
C      -48.72760000     -32.51690000     -73.53040000
H      -49.38110000     -31.85930000     -72.96840000
H      -49.08300000     -32.53020000     -74.53250000
S      -43.26370000     -34.01070000     -73.84560000
S      -48.87150000     -34.21690000     -72.82670000
C      -42.53930000     -33.14210000     -72.34310000
H      -41.76350000     -33.79090000     -71.92290000
H      -42.04540000     -32.21310000     -72.75350000
C      -48.08070000     -34.11030000     -71.14430000
H      -48.55240000     -34.83850000     -70.51410000
H      -48.19890000     -33.14830000     -70.72040000
C      -46.55490000     -34.35980000     -71.24870000
H      -46.35560000     -35.29950000     -71.67690000
H      -46.04720000     -33.55910000     -71.82240000
C      -43.55890000     -32.66570000     -71.31960000
H      -44.56510000     -32.76270000     -71.64580000
H      -43.29940000     -31.61000000     -71.15930000
C      -43.50520000     -33.40070000     -70.01500000
C      -42.48290000     -33.14870000     -69.12100000
C      -44.55640000     -34.19690000     -69.44340000
H      -41.52860000     -32.56730000     -69.33030000
C      -44.20440000     -34.58550000     -68.17020000
C      -45.93400000     -34.54330000     -69.82890000
C      -46.60310000     -35.03510000     -68.74480000
S      -42.76330000     -33.94840000     -67.56720000
S      -45.55120000     -35.28250000     -67.29440000
H      -47.57960000     -35.48970000     -68.62380000
