40
Properties=species:S:1:pos:R:3 #=T CELL(abcABC):=T 1.889726e+02=T 90.00000=T Traj:=T positionsangstrom=T Step:=T 0=T Bead:=T pbc="F F F"
C      -46.36200000     -29.69990000     -72.73790000
C      -46.90930000     -30.93810000     -73.11780000
C      -46.17500000     -31.87760000     -73.79220000
C      -44.81110000     -31.72670000     -74.11090000
C      -44.23080000     -30.44060000     -73.74070000
C      -45.01310000     -29.48280000     -73.06830000
H      -47.11670000     -28.99790000     -72.30480000
H      -46.63800000     -32.85280000     -74.15130000
H      -43.24610000     -30.30380000     -74.10390000
H      -44.47210000     -28.51590000     -72.75560000
C      -43.97520000     -32.73510000     -74.84830000
H      -42.91360000     -32.45310000     -74.60660000
H      -44.15380000     -32.53750000     -75.88150000
C      -48.36450000     -31.15360000     -72.69570000
H      -48.72120000     -30.55000000     -71.84150000
H      -48.97130000     -30.80500000     -73.54790000
S      -44.40260000     -34.53510000     -74.41190000
S      -48.70030000     -32.88380000     -72.30790000
C      -43.50280000     -34.74530000     -72.79440000
H      -43.94810000     -35.65700000     -72.41510000
H      -42.41950000     -34.87730000     -72.96310000
C      -47.52260000     -33.08280000     -70.85960000
H      -48.15950000     -32.87990000     -69.93650000
H      -46.72090000     -32.30560000     -70.94400000
C      -46.90650000     -34.44570000     -70.89570000
H      -47.80310000     -35.09050000     -70.87760000
H      -46.22940000     -34.58130000     -71.79770000
C      -43.82390000     -33.63240000     -71.77300000
H      -44.81760000     -33.27620000     -72.01840000
H      -43.25520000     -32.73320000     -72.03530000
C      -43.64480000     -34.04080000     -70.36550000
C      -42.44690000     -34.01380000     -69.70110000
C      -44.65980000     -34.56590000     -69.53380000
H      -41.56180000     -33.56580000     -70.14340000
C      -44.19990000     -34.88760000     -68.28140000
C      -46.07980000     -34.86890000     -69.70080000
C      -46.70380000     -35.29680000     -68.59520000
S      -42.56130000     -34.53370000     -67.97060000
S      -45.53170000     -35.45090000     -67.24740000
H      -47.76930000     -35.60750000     -68.54390000
