40
Properties=species:S:1:pos:R:3 #=T CELL(abcABC):=T 1.889726e+02=T 90.00000=T Traj:=T positionsangstrom=T Step:=T 0=T Bead:=T pbc="F F F"
C      -47.20920000     -30.65580000     -72.95070000
C      -47.36670000     -31.88700000     -73.52180000
C      -46.27270000     -32.49680000     -74.23270000
C      -45.04380000     -31.84420000     -74.22940000
C      -44.90510000     -30.51530000     -73.67580000
C      -45.97810000     -29.95610000     -72.99980000
H      -48.04830000     -30.16050000     -72.48700000
H      -46.27940000     -33.44550000     -74.68670000
H      -43.99740000     -30.03190000     -73.72610000
H      -45.98660000     -28.97950000     -72.64600000
C      -43.80460000     -32.46230000     -74.80190000
H      -42.91230000     -31.78000000     -74.82560000
H      -44.00380000     -32.69560000     -75.81280000
C      -48.76070000     -32.55470000     -73.53620000
H      -49.50620000     -31.80110000     -73.16900000
H      -49.03800000     -32.69600000     -74.61290000
S      -43.23150000     -34.01130000     -73.92140000
S      -48.97100000     -34.07150000     -72.64570000
C      -42.42250000     -33.32780000     -72.45120000
H      -41.86030000     -34.17820000     -72.08540000
H      -41.70320000     -32.58900000     -72.83950000
C      -48.09940000     -33.89890000     -71.04930000
H      -48.52720000     -34.66230000     -70.33720000
H      -48.32750000     -32.86950000     -70.59500000
C      -46.55870000     -34.02030000     -71.14130000
H      -46.33390000     -34.90410000     -71.85280000
H      -46.13200000     -33.14620000     -71.62430000
C      -43.30570000     -32.73030000     -71.32640000
H      -44.32700000     -32.52650000     -71.69830000
H      -42.92180000     -31.71680000     -71.14190000
C      -43.48300000     -33.39930000     -69.97400000
C      -42.39500000     -33.38820000     -69.13510000
C      -44.63970000     -33.96080000     -69.41200000
H      -41.37590000     -33.16700000     -69.64570000
C      -44.29960000     -34.42860000     -68.11110000
C      -45.94100000     -34.40580000     -69.85970000
C      -46.54510000     -35.23050000     -68.96530000
S      -42.71190000     -34.12100000     -67.60790000
S      -45.64700000     -35.39980000     -67.42120000
H      -47.58080000     -35.48800000     -68.87640000
