40
Properties=species:S:1:pos:R:3 #=T CELL(abcABC):=T 1.889726e+02=T 90.00000=T Traj:=T positionsangstrom=T Step:=T 0=T Bead:=T pbc="F F F"
C      -48.77550000     -35.15260000     -70.10610000
C      -48.10110000     -34.32790000     -71.03270000
C      -47.01520000     -34.77320000     -71.70210000
C      -46.37540000     -36.00020000     -71.37980000
C      -47.03920000     -36.86370000     -70.50450000
C      -48.25440000     -36.39950000     -69.87470000
H      -49.65010000     -34.74560000     -69.56570000
H      -46.46610000     -34.08490000     -72.30740000
H      -46.51700000     -37.75060000     -70.31330000
H      -48.78560000     -37.08070000     -69.16480000
C      -45.02760000     -36.19030000     -72.02630000
H      -44.75760000     -35.18670000     -72.48530000
H      -44.80950000     -36.97800000     -72.79310000
C      -48.60670000     -32.89630000     -71.20320000
H      -48.17860000     -32.33270000     -72.04790000
H      -49.68610000     -32.68960000     -71.33490000
S      -43.57790000     -36.37610000     -70.78660000
S      -48.30980000     -31.89980000     -69.69740000
C      -43.96160000     -34.85360000     -69.74730000
H      -44.96470000     -34.57750000     -70.10220000
H      -44.01770000     -35.29300000     -68.72500000
C      -46.55020000     -32.14520000     -69.24160000
H      -46.14020000     -33.11290000     -69.73340000
H      -46.51640000     -32.27940000     -68.22160000
C      -45.46900000     -30.99140000     -69.75360000
H      -45.91650000     -29.94980000     -69.53690000
H      -44.61530000     -31.20600000     -69.10230000
C      -42.98160000     -33.65040000     -69.74770000
H      -41.96820000     -33.93890000     -69.28700000
H      -43.45260000     -32.83270000     -69.12040000
C      -42.92180000     -32.96720000     -71.15730000
C      -42.09310000     -33.44560000     -72.13310000
C      -43.84080000     -31.99750000     -71.67810000
H      -41.35820000     -34.20180000     -72.04170000
C      -43.58740000     -31.65450000     -72.96640000
C      -44.95440000     -31.14570000     -71.12450000
C      -45.42730000     -30.31720000     -72.13190000
S      -42.43760000     -32.71660000     -73.71530000
S      -44.59560000     -30.48170000     -73.68520000
H      -46.16400000     -29.50980000     -71.91470000
