40
Properties=species:S:1:pos:R:3 #=T CELL(abcABC):=T 1.889726e+02=T 90.00000=T Traj:=T positionsangstrom=T Step:=T 0=T Bead:=T pbc="F F F"
C      -42.49270000     -31.36970000     -73.35060000
C      -43.64800000     -31.62280000     -72.59410000
C      -44.40640000     -32.73900000     -72.91090000
C      -44.05160000     -33.59610000     -73.92910000
C      -42.99190000     -33.23180000     -74.78280000
C      -42.20380000     -32.12760000     -74.49920000
H      -41.75860000     -30.59370000     -73.13900000
H      -45.20850000     -32.96630000     -72.22950000
H      -42.72330000     -33.87310000     -75.61050000
H      -41.17700000     -32.01580000     -74.93040000
C      -44.54770000     -35.01250000     -74.19430000
H      -44.12540000     -35.43770000     -75.14990000
H      -45.59750000     -35.18790000     -74.21300000
C      -44.07960000     -30.69500000     -71.49770000
H      -43.77140000     -29.68070000     -71.68790000
H      -45.11190000     -30.86890000     -71.21550000
S      -43.80220000     -35.89870000     -72.67260000
S      -43.12510000     -31.17730000     -69.87780000
C      -45.29680000     -36.75120000     -71.78710000
H      -46.04310000     -36.73560000     -72.62000000
H      -44.86920000     -37.74270000     -71.74200000
C      -43.31600000     -32.99760000     -69.51350000
H      -42.46850000     -33.19700000     -68.88160000
H      -43.16860000     -33.63830000     -70.38360000
C      -44.51890000     -33.42960000     -68.66470000
H      -44.42210000     -34.47590000     -68.46890000
H      -44.48650000     -32.94140000     -67.67470000
C      -45.66940000     -36.16750000     -70.44850000
H      -44.85940000     -35.58430000     -70.09290000
H      -45.89920000     -37.02390000     -69.74120000
C      -46.82840000     -35.18810000     -70.41690000
C      -48.03860000     -35.54670000     -70.93800000
C      -46.77950000     -33.84670000     -69.98360000
H      -48.33200000     -36.44540000     -71.36830000
C      -48.00570000     -33.13700000     -70.30340000
C      -45.85750000     -32.99370000     -69.27520000
C      -46.32750000     -31.72130000     -69.08990000
S      -49.21060000     -34.26720000     -70.86690000
S      -48.00920000     -31.43170000     -69.83990000
H      -45.73780000     -30.83800000     -68.73440000
