40
Properties=species:S:1:pos:R:3 #=T CELL(abcABC):=T 1.889726e+02=T 90.00000=T Traj:=T positionsangstrom=T Step:=T 0=T Bead:=T pbc="F F F"
C      -47.39790000     -31.14270000     -68.79010000
C      -47.71680000     -32.21340000     -69.58790000
C      -48.01340000     -32.06590000     -70.94120000
C      -47.98790000     -30.80600000     -71.51140000
C      -47.61550000     -29.67720000     -70.75120000
C      -47.42650000     -29.86490000     -69.35180000
H      -47.05000000     -31.15580000     -67.79840000
H      -48.29440000     -32.91040000     -71.49960000
H      -47.44660000     -28.67450000     -71.10020000
H      -47.13890000     -28.98490000     -68.75990000
C      -48.13840000     -30.73510000     -73.02390000
H      -48.68180000     -29.82240000     -73.24940000
H      -48.75430000     -31.61100000     -73.35490000
C      -47.76030000     -33.62020000     -68.93090000
H      -48.64630000     -33.88050000     -68.35670000
H      -47.73070000     -34.46980000     -69.62540000
S      -46.49630000     -30.51000000     -73.84930000
S      -46.22680000     -33.85580000     -67.82840000
C      -45.75780000     -32.17590000     -73.90270000
H      -46.63390000     -32.74030000     -74.32660000
H      -44.96450000     -32.27280000     -74.64690000
C      -45.11470000     -34.67790000     -68.96090000
H      -45.81260000     -35.14360000     -69.70310000
H      -44.66960000     -35.57770000     -68.50920000
C      -43.99040000     -33.74430000     -69.42000000
H      -44.30900000     -32.81090000     -69.79440000
H      -43.55300000     -33.51000000     -68.40990000
C      -45.21010000     -32.72860000     -72.57570000
H      -46.01700000     -32.80790000     -71.82750000
H      -44.46190000     -32.08830000     -72.17590000
C      -44.54820000     -34.10670000     -72.68190000
C      -44.59360000     -34.74360000     -73.89170000
C      -43.64240000     -34.80390000     -71.79490000
H      -45.08010000     -34.25940000     -74.75700000
C      -42.97010000     -35.79820000     -72.42690000
C      -43.12270000     -34.47700000     -70.43930000
C      -42.14390000     -35.32470000     -70.05760000
S      -43.44630000     -36.08810000     -74.04560000
S      -41.71390000     -36.52750000     -71.30060000
H      -41.88810000     -35.52440000     -69.06530000
