40
Properties=species:S:1:pos:R:3 #=T CELL(abcABC):=T 1.889726e+02=T 90.00000=T Traj:=T positionsangstrom=T Step:=T 0=T Bead:=T pbc="F F F"
C      -46.10760000     -29.73660000     -72.69420000
C      -45.80320000     -29.97770000     -71.35590000
C      -46.67740000     -30.78780000     -70.63440000
C      -47.86020000     -31.27570000     -71.24470000
C      -48.20510000     -30.90510000     -72.54580000
C      -47.26280000     -30.19440000     -73.30690000
H      -45.40220000     -29.10950000     -73.21380000
H      -46.38970000     -31.01340000     -69.53670000
H      -49.19490000     -31.18490000     -72.90660000
H      -47.49770000     -29.92400000     -74.36190000
C      -48.81470000     -32.07270000     -70.32270000
H      -49.74850000     -31.61090000     -70.14670000
H      -48.30080000     -31.97170000     -69.37410000
C      -44.54860000     -29.54520000     -70.69510000
H      -44.56560000     -28.48710000     -70.46760000
H      -44.48890000     -29.95730000     -69.68830000
S      -49.08470000     -33.73550000     -70.83610000
S      -43.10390000     -30.10310000     -71.62200000
C      -47.49990000     -34.60880000     -71.01070000
H      -47.65430000     -35.65190000     -71.00880000
H      -47.09830000     -34.30370000     -71.95090000
C      -43.19190000     -31.93360000     -71.33910000
H      -43.51240000     -32.11050000     -70.30230000
H      -42.13800000     -32.29370000     -71.53020000
C      -44.18240000     -32.79090000     -72.15700000
H      -45.16500000     -32.70770000     -71.77000000
H      -44.24110000     -32.42540000     -73.23600000
C      -46.43250000     -34.28500000     -70.03040000
H      -46.82420000     -34.15470000     -69.00040000
H      -45.99690000     -33.27680000     -70.24310000
C      -45.30300000     -35.27980000     -70.16500000
C      -45.28810000     -36.45220000     -69.49530000
C      -44.25880000     -35.26170000     -71.14730000
H      -46.11400000     -36.76510000     -68.85650000
C      -43.56240000     -36.43820000     -71.24020000
C      -43.73310000     -34.26070000     -72.07080000
C      -42.68740000     -34.82320000     -72.78000000
S      -44.13050000     -37.65380000     -70.05020000
S      -42.35850000     -36.49090000     -72.43740000
H      -42.16440000     -34.16760000     -73.56930000
