40
Properties=species:S:1:pos:R:3 #=T CELL(abcABC):=T 1.889726e+02=T 90.00000=T Traj:=T positionsangstrom=T Step:=T 0=T Bead:=T pbc="F F F"
C      -48.94370000     -34.09830000     -72.02090000
C      -47.73000000     -33.43680000     -72.11650000
C      -46.51970000     -34.18900000     -72.11760000
C      -46.53470000     -35.57390000     -72.11180000
C      -47.78000000     -36.22600000     -71.92030000
C      -49.00680000     -35.53000000     -71.89050000
H      -49.91230000     -33.50930000     -71.98770000
H      -45.62340000     -33.54560000     -72.06070000
H      -47.81080000     -37.35580000     -72.04360000
H      -49.97030000     -36.00000000     -71.59450000
C      -45.28610000     -36.41130000     -72.04120000
H      -44.43810000     -35.91910000     -72.50690000
H      -45.36890000     -37.25310000     -72.72480000
C      -47.56700000     -31.91430000     -72.25110000
H      -46.58450000     -31.57980000     -72.52260000
H      -48.30160000     -31.45290000     -73.00450000
S      -44.90700000     -36.96980000     -70.33370000
S      -47.90810000     -31.03140000     -70.56520000
C      -45.00410000     -35.35880000     -69.36180000
H      -45.80750000     -34.87410000     -69.77260000
H      -45.29310000     -35.67680000     -68.31340000
C      -46.79560000     -31.91840000     -69.39360000
H      -46.66860000     -32.90930000     -69.76040000
H      -47.26510000     -31.88340000     -68.42260000
C      -45.38970000     -31.38780000     -69.23790000
H      -45.45260000     -30.36220000     -68.89750000
H      -44.94240000     -31.85080000     -68.35160000
C      -43.77240000     -34.45220000     -69.31940000
H      -42.95330000     -35.05270000     -68.96810000
H      -43.99500000     -33.75140000     -68.50390000
C      -43.34420000     -33.74890000     -70.59300000
C      -42.60790000     -34.44970000     -71.52880000
C      -43.68570000     -32.43190000     -70.95350000
H      -42.29170000     -35.46670000     -71.44400000
C      -43.11050000     -32.08620000     -72.15650000
C      -44.51270000     -31.34570000     -70.40600000
C      -44.29960000     -30.21410000     -71.21300000
S      -42.23430000     -33.36210000     -72.95520000
S      -43.41980000     -30.48460000     -72.72930000
H      -44.83120000     -29.32300000     -71.10970000
