40
Properties=species:S:1:pos:R:3 #=T CELL(abcABC):=T 1.889726e+02=T 90.00000=T Traj:=T positionsangstrom=T Step:=T 0=T Bead:=T pbc="F F F"
C      -46.22570000     -29.61880000     -72.68050000
C      -45.84090000     -29.81610000     -71.34250000
C      -46.74460000     -30.56060000     -70.57100000
C      -47.81690000     -31.27150000     -71.12220000
C      -48.10770000     -31.12460000     -72.48430000
C      -47.27770000     -30.30860000     -73.25000000
H      -45.55590000     -29.04290000     -73.30230000
H      -46.51040000     -30.56380000     -69.50960000
H      -48.80830000     -31.72350000     -73.03260000
H      -47.40320000     -30.29730000     -74.30820000
C      -48.73600000     -32.09280000     -70.27140000
H      -49.76600000     -31.64060000     -70.29720000
H      -48.39610000     -32.27610000     -69.23130000
C      -44.52480000     -29.31430000     -70.93340000
H      -44.36370000     -28.24590000     -71.25270000
H      -44.31540000     -29.44090000     -69.84800000
S      -49.29180000     -33.77010000     -70.86110000
S      -42.96360000     -30.13910000     -71.73260000
C      -47.68590000     -34.75710000     -70.97300000
H      -47.99260000     -35.75030000     -70.70390000
H      -47.46810000     -34.88430000     -72.11500000
C      -42.97540000     -31.96960000     -71.34170000
H      -43.04010000     -32.13220000     -70.28680000
H      -41.97520000     -32.36110000     -71.56890000
C      -43.99430000     -32.73430000     -72.16940000
H      -45.01860000     -32.49570000     -71.80200000
H      -43.97620000     -32.33990000     -73.18820000
C      -46.58550000     -34.36550000     -70.05360000
H      -47.01930000     -34.55610000     -69.09360000
H      -46.32910000     -33.31200000     -70.20230000
C      -45.40320000     -35.37760000     -70.18350000
C      -45.35530000     -36.50260000     -69.42860000
C      -44.28370000     -35.25550000     -71.11870000
H      -46.17990000     -36.78040000     -68.84190000
C      -43.53380000     -36.42290000     -71.20970000
C      -43.74600000     -34.29760000     -72.06920000
C      -42.77880000     -34.83770000     -72.88440000
S      -43.97710000     -37.54880000     -69.89620000
S      -42.37050000     -36.49730000     -72.47680000
H      -42.40120000     -34.18350000     -73.68250000
