40
Properties=species:S:1:pos:R:3 #=T CELL(abcABC):=T 1.889726e+02=T 90.00000=T Traj:=T positionsangstrom=T Step:=T 0=T Bead:=T pbc="F F F"
C      -48.34140000     -31.39380000     -68.31820000
C      -48.04920000     -32.62100000     -68.93900000
C      -47.91990000     -32.59580000     -70.39640000
C      -48.24370000     -31.43560000     -71.08150000
C      -48.79400000     -30.29920000     -70.46420000
C      -48.77110000     -30.26630000     -69.04940000
H      -48.44110000     -31.39150000     -67.29060000
H      -47.66300000     -33.46800000     -70.94880000
H      -49.08270000     -29.36110000     -70.99940000
H      -49.10060000     -29.36990000     -68.45090000
C      -48.23950000     -31.44100000     -72.63370000
H      -49.22890000     -31.02840000     -72.98620000
H      -48.18710000     -32.44070000     -73.00710000
C      -47.82950000     -33.86790000     -68.22620000
H      -48.29600000     -33.89380000     -67.23610000
H      -48.00660000     -34.72480000     -68.86800000
S      -46.86540000     -30.52300000     -73.50530000
S      -46.07130000     -33.99960000     -67.60840000
C      -45.74800000     -32.00220000     -73.83940000
H      -46.34450000     -32.95080000     -73.86380000
H      -45.27120000     -31.73460000     -74.79880000
C      -45.18690000     -34.82650000     -69.01580000
H      -45.89390000     -35.22480000     -69.73810000
H      -44.65550000     -35.68940000     -68.56310000
C      -44.24380000     -33.92980000     -69.75530000
H      -44.82000000     -33.18990000     -70.29980000
H      -43.50220000     -33.38640000     -69.10450000
C      -44.61110000     -32.24010000     -72.81740000
H      -45.04670000     -32.29010000     -71.82380000
H      -43.96200000     -31.37960000     -72.97480000
C      -43.70830000     -33.38970000     -73.11990000
C      -43.09690000     -33.55910000     -74.31950000
C      -43.35600000     -34.43010000     -72.18660000
H      -43.25200000     -32.87060000     -75.11000000
C      -42.47100000     -35.38400000     -72.79830000
C      -43.52900000     -34.80420000     -70.80270000
C      -42.94330000     -36.00270000     -70.46140000
S      -42.09450000     -35.03700000     -74.47120000
S      -42.04490000     -36.66870000     -71.78890000
H      -43.03640000     -36.56410000     -69.47540000
