40
Properties=species:S:1:pos:R:3 #=T CELL(abcABC):=T 1.889726e+02=T 90.00000=T Traj:=T positionsangstrom=T Step:=T 0=T Bead:=T pbc="F F F"
C      -44.20240000     -30.50490000     -72.96430000
C      -45.40440000     -30.86470000     -73.53980000
C      -45.39980000     -32.04340000     -74.25260000
C      -44.28320000     -32.89640000     -74.46810000
C      -43.05050000     -32.41090000     -74.00810000
C      -43.03140000     -31.20360000     -73.29610000
H      -44.11540000     -29.62530000     -72.37350000
H      -46.35450000     -32.42150000     -74.63530000
H      -42.11690000     -33.00140000     -74.20290000
H      -42.13660000     -30.77520000     -72.81960000
C      -44.48970000     -34.23180000     -75.26140000
H      -43.52010000     -34.62420000     -75.42550000
H      -45.01730000     -34.06660000     -76.23240000
C      -46.70240000     -30.15260000     -73.32770000
H      -46.53090000     -29.30980000     -72.64390000
H      -47.18970000     -29.76720000     -74.16200000
S      -45.42120000     -35.52560000     -74.36280000
S      -48.05760000     -31.16130000     -72.33880000
C      -44.44980000     -35.67330000     -72.82750000
H      -44.31950000     -36.70590000     -72.71980000
H      -43.41680000     -35.27820000     -72.95250000
C      -47.06730000     -31.63110000     -70.87570000
H      -47.26010000     -30.95510000     -70.03240000
H      -46.03910000     -31.62320000     -71.15110000
C      -47.47980000     -33.00510000     -70.26910000
H      -48.50440000     -32.90760000     -69.86840000
H      -47.53360000     -33.78970000     -71.00760000
C      -45.25440000     -34.84290000     -71.77000000
H      -46.26790000     -35.30000000     -71.75800000
H      -45.33680000     -33.73010000     -71.92530000
C      -44.61570000     -34.86650000     -70.34020000
C      -43.53040000     -35.57990000     -69.91650000
C      -45.33830000     -34.21410000     -69.28470000
H      -42.78840000     -36.11990000     -70.40970000
C      -44.72140000     -34.41770000     -68.07590000
C      -46.58410000     -33.41900000     -69.14440000
C      -46.87650000     -33.23190000     -67.82310000
S      -43.28450000     -35.38470000     -68.21360000
S      -45.59010000     -33.84460000     -66.68300000
H      -47.60700000     -32.53780000     -67.42670000
