40
Properties=species:S:1:pos:R:3 #=T CELL(abcABC):=T 1.889726e+02=T 90.00000=T Traj:=T positionsangstrom=T Step:=T 0=T Bead:=T pbc="F F F"
C      -44.30980000     -30.48720000     -72.92940000
C      -45.54810000     -30.83430000     -73.51180000
C      -45.54690000     -32.06240000     -74.23090000
C      -44.42630000     -32.83400000     -74.45950000
C      -43.20810000     -32.38920000     -73.88600000
C      -43.17850000     -31.29910000     -73.01330000
H      -44.25750000     -29.59130000     -72.34920000
H      -46.59610000     -32.37570000     -74.61080000
H      -42.34610000     -33.00620000     -74.06940000
H      -42.25940000     -31.03120000     -72.52120000
C      -44.41940000     -34.00900000     -75.40490000
H      -43.38840000     -34.37160000     -75.70340000
H      -44.75990000     -33.66330000     -76.38890000
C      -46.82890000     -30.14480000     -73.15350000
H      -46.59080000     -29.13760000     -72.62130000
H      -47.46610000     -29.75880000     -73.99090000
S      -45.40190000     -35.38860000     -74.65400000
S      -47.92270000     -31.16230000     -72.20130000
C      -44.56750000     -35.62010000     -72.95700000
H      -44.73650000     -36.69070000     -72.63470000
H      -43.51500000     -35.45340000     -73.06410000
C      -46.87940000     -31.74370000     -70.84790000
H      -46.60000000     -30.94470000     -70.15740000
H      -45.95320000     -32.14240000     -71.41720000
C      -47.48740000     -32.97510000     -70.14080000
H      -48.45110000     -32.74210000     -69.63120000
H      -47.71710000     -33.75550000     -70.85870000
C      -45.26100000     -34.79420000     -71.74360000
H      -46.29690000     -35.00550000     -71.52520000
H      -45.31300000     -33.75830000     -72.06600000
C      -44.62610000     -34.94650000     -70.39250000
C      -43.44630000     -35.55440000     -70.02370000
C      -45.33470000     -34.37150000     -69.29190000
H      -42.72000000     -36.02130000     -70.69610000
C      -44.72210000     -34.58880000     -68.03990000
C      -46.58870000     -33.54330000     -69.12480000
C      -46.74710000     -33.24020000     -67.79360000
S      -43.19390000     -35.36180000     -68.25530000
S      -45.57630000     -33.92430000     -66.67540000
H      -47.63780000     -32.65810000     -67.42460000
