40
Properties=species:S:1:pos:R:3 #=T CELL(abcABC):=T 1.889726e+02=T 90.00000=T Traj:=T positionsangstrom=T Step:=T 0=T Bead:=T pbc="F F F"
C      -44.43640000     -30.58840000     -72.70740000
C      -45.66350000     -30.91280000     -73.27300000
C      -45.67380000     -31.98550000     -74.15080000
C      -44.44160000     -32.59070000     -74.47590000
C      -43.25570000     -32.26100000     -73.84750000
C      -43.16960000     -31.17630000     -72.98080000
H      -44.47440000     -29.63590000     -72.14010000
H      -46.54820000     -32.40030000     -74.60940000
H      -42.37430000     -32.87440000     -74.07080000
H      -42.21440000     -30.71530000     -72.61040000
C      -44.54670000     -33.79370000     -75.43400000
H      -43.47810000     -33.96000000     -75.70770000
H      -45.07700000     -33.42010000     -76.36640000
C      -46.91920000     -30.06780000     -72.93710000
H      -46.69890000     -29.14440000     -72.35520000
H      -47.45870000     -29.79820000     -73.88340000
S      -45.15200000     -35.38790000     -74.79680000
S      -48.09440000     -31.08920000     -71.94210000
C      -44.58720000     -35.41060000     -73.05670000
H      -44.51040000     -36.42190000     -72.78100000
H      -43.56210000     -35.04560000     -73.26230000
C      -47.00260000     -31.55340000     -70.59600000
H      -46.96080000     -30.67380000     -69.90320000
H      -45.96630000     -31.73940000     -70.95460000
C      -47.49010000     -32.95660000     -69.95880000
H      -48.46000000     -32.96880000     -69.51520000
H      -47.46510000     -33.61620000     -70.85350000
C      -45.26830000     -34.60750000     -71.91340000
H      -46.35840000     -34.88700000     -71.82660000
H      -45.18380000     -33.49390000     -72.11310000
C      -44.69580000     -34.91190000     -70.54180000
C      -43.62100000     -35.72150000     -70.25520000
C      -45.26110000     -34.24080000     -69.31910000
H      -43.00380000     -36.29100000     -70.97130000
C      -44.56620000     -34.67200000     -68.18620000
C      -46.49060000     -33.51710000     -69.03070000
C      -46.60130000     -33.30160000     -67.64780000
S      -43.23300000     -35.71800000     -68.53570000
S      -45.38210000     -34.15230000     -66.76530000
H      -47.50450000     -32.70360000     -67.27460000
