40
Properties=species:S:1:pos:R:3 #=T CELL(abcABC):=T 1.889726e+02=T 90.00000=T Traj:=T positionsangstrom=T Step:=T 0=T Bead:=T pbc="F F F"
C      -44.51620000     -30.40490000     -72.56990000
C      -45.66530000     -30.71880000     -73.29310000
C      -45.65020000     -31.80830000     -74.12400000
C      -44.49390000     -32.50950000     -74.38220000
C      -43.34420000     -32.16140000     -73.62560000
C      -43.32830000     -31.10330000     -72.74640000
H      -44.62670000     -29.59700000     -71.86860000
H      -46.58900000     -32.26410000     -74.43120000
H      -42.46100000     -32.79140000     -73.67200000
H      -42.51120000     -30.83160000     -72.10730000
C      -44.52280000     -33.61110000     -75.40300000
H      -43.49920000     -33.85570000     -75.75060000
H      -45.00530000     -33.26280000     -76.32570000
C      -46.89080000     -29.98340000     -73.00550000
H      -46.68950000     -29.03350000     -72.43390000
H      -47.48420000     -29.70890000     -73.87320000
S      -45.42800000     -35.11450000     -74.81180000
S      -48.02030000     -31.09440000     -71.85720000
C      -44.68030000     -35.55490000     -73.12360000
H      -44.61990000     -36.67960000     -73.13360000
H      -43.58830000     -35.21780000     -73.09750000
C      -46.80030000     -31.64930000     -70.63760000
H      -46.50890000     -30.86370000     -69.95950000
H      -45.89600000     -31.93610000     -71.13270000
C      -47.33570000     -32.89910000     -69.95360000
H      -48.17380000     -32.55880000     -69.42330000
H      -47.63990000     -33.64420000     -70.71240000
C      -45.51160000     -35.08090000     -71.93490000
H      -46.47340000     -35.64780000     -71.74770000
H      -45.87530000     -34.11300000     -72.28220000
C      -44.79200000     -35.15170000     -70.60200000
C      -43.89440000     -36.09750000     -70.29290000
C      -45.20340000     -34.43530000     -69.41230000
H      -43.31610000     -36.77890000     -71.00480000
C      -44.47420000     -34.76600000     -68.32100000
C      -46.22490000     -33.43530000     -69.11990000
C      -46.27350000     -33.13400000     -67.76460000
S      -43.40750000     -36.08930000     -68.56330000
S      -45.01930000     -33.91220000     -66.83820000
H      -46.96500000     -32.56050000     -67.26890000
