40
Properties=species:S:1:pos:R:3 #=T CELL(abcABC):=T 1.889726e+02=T 90.00000=T Traj:=T positionsangstrom=T Step:=T 0=T Bead:=T pbc="F F F"
C      -42.48280000     -31.51720000     -73.43330000
C      -43.60270000     -31.61660000     -72.60900000
C      -44.40660000     -32.80650000     -72.75840000
C      -43.98620000     -33.85010000     -73.62030000
C      -42.73990000     -33.76540000     -74.29740000
C      -42.09170000     -32.55780000     -74.22850000
H      -41.77690000     -30.67810000     -73.25970000
H      -45.39000000     -32.90870000     -72.19640000
H      -42.37310000     -34.56730000     -74.94410000
H      -41.02730000     -32.49410000     -74.56880000
C      -44.88280000     -35.08820000     -73.66450000
H      -45.13460000     -35.39710000     -74.68870000
H      -45.83570000     -34.76190000     -73.16580000
C      -43.97120000     -30.72050000     -71.39110000
H      -43.78200000     -29.68580000     -71.46070000
H      -45.01220000     -30.80860000     -71.08320000
S      -44.17660000     -36.62100000     -72.92180000
S      -42.98250000     -31.17570000     -69.83410000
C      -45.59130000     -37.02260000     -71.85510000
H      -46.54160000     -36.94450000     -72.39900000
H      -45.27090000     -38.01270000     -71.43120000
C      -43.25340000     -32.99720000     -69.76060000
H      -42.30050000     -33.44140000     -69.56990000
H      -43.47800000     -33.27640000     -70.76850000
C      -44.41090000     -33.37780000     -68.81810000
H      -44.45740000     -34.49940000     -68.70920000
H      -44.16850000     -32.96800000     -67.83410000
C      -45.88390000     -36.11810000     -70.60680000
H      -44.98560000     -35.89690000     -69.98300000
H      -46.49830000     -36.85840000     -70.11470000
C      -46.86340000     -34.85140000     -70.80200000
C      -48.06590000     -35.08900000     -71.35680000
C      -46.71740000     -33.53340000     -70.16330000
H      -48.38900000     -35.81840000     -72.08600000
C      -47.91830000     -32.78110000     -70.28830000
C      -45.78130000     -32.83620000     -69.26880000
C      -46.26820000     -31.61160000     -68.84560000
S      -49.10970000     -33.71000000     -71.26150000
S      -47.85370000     -31.25510000     -69.44470000
H      -45.81950000     -31.04710000     -68.00490000
