40
Properties=species:S:1:pos:R:3 #=T CELL(abcABC):=T 1.889726e+02=T 90.00000=T Traj:=T positionsangstrom=T Step:=T 0=T Bead:=T pbc="F F F"
C      -44.19750000     -30.59000000     -73.27720000
C      -45.44670000     -31.02630000     -73.65750000
C      -45.55530000     -32.28180000     -74.24670000
C      -44.37820000     -33.06110000     -74.52130000
C      -43.14770000     -32.54990000     -74.10000000
C      -43.04810000     -31.31180000     -73.48310000
H      -44.05060000     -29.61890000     -72.68950000
H      -46.47050000     -32.67710000     -74.50990000
H      -42.20020000     -33.14190000     -74.27700000
H      -42.07540000     -30.91370000     -73.13160000
C      -44.29700000     -34.32610000     -75.30990000
H      -43.25420000     -34.63040000     -75.59060000
H      -44.92890000     -34.21250000     -76.18860000
C      -46.63060000     -30.16090000     -73.32590000
H      -46.37580000     -29.29860000     -72.71790000
H      -47.10850000     -29.87750000     -74.30450000
S      -45.30580000     -35.59010000     -74.41730000
S      -47.90270000     -31.22440000     -72.36160000
C      -44.47250000     -35.64260000     -72.78080000
H      -44.54890000     -36.66040000     -72.43250000
H      -43.34080000     -35.52180000     -72.85500000
C      -47.13440000     -31.59000000     -70.71370000
H      -47.26980000     -30.68820000     -70.03860000
H      -46.09690000     -31.53000000     -70.91140000
C      -47.52830000     -32.93070000     -70.16160000
H      -48.61810000     -32.82600000     -69.89170000
H      -47.47540000     -33.64650000     -71.00350000
C      -45.29980000     -34.73730000     -71.73850000
H      -46.29340000     -35.07700000     -71.70390000
H      -45.29680000     -33.80280000     -72.28040000
C      -44.70250000     -34.74960000     -70.32950000
C      -43.53700000     -35.36600000     -69.98180000
C      -45.40330000     -34.17760000     -69.21620000
H      -42.94090000     -36.03160000     -70.53810000
C      -44.73680000     -34.33260000     -68.00440000
C      -46.65090000     -33.37360000     -69.02110000
C      -46.80590000     -33.03180000     -67.71850000
S      -43.34210000     -35.42790000     -68.14860000
S      -45.62190000     -33.64910000     -66.59910000
H      -47.61430000     -32.57680000     -67.26340000
