40
Properties=species:S:1:pos:R:3 #=T CELL(abcABC):=T 1.889726e+02=T 90.00000=T Traj:=T positionsangstrom=T Step:=T 0=T Bead:=T pbc="F F F"
C      -47.33660000     -34.41640000     -72.47410000
C      -46.21680000     -34.12470000     -73.28290000
C      -45.77770000     -32.83150000     -73.42060000
C      -46.48920000     -31.73550000     -72.74940000
C      -47.66870000     -32.05440000     -72.09110000
C      -48.04340000     -33.36960000     -71.98170000
H      -47.67900000     -35.45690000     -72.41550000
H      -44.80310000     -32.74450000     -73.96650000
H      -48.31880000     -31.22870000     -71.69210000
H      -48.95260000     -33.60190000     -71.45880000
C      -46.01360000     -30.33400000     -72.94780000
H      -46.85650000     -29.61390000     -73.14420000
H      -45.36610000     -30.23190000     -73.81880000
C      -45.47400000     -35.23180000     -74.03530000
H      -45.54050000     -36.17610000     -73.40830000
H      -45.87820000     -35.40950000     -75.03330000
S      -45.06380000     -29.60340000     -71.58480000
S      -43.67360000     -35.12050000     -74.32610000
C      -43.66320000     -30.84370000     -71.41270000
H      -43.84670000     -31.69750000     -72.13750000
H      -42.68030000     -30.42540000     -71.76160000
C      -42.74710000     -35.46480000     -72.75260000
H      -41.67860000     -35.44600000     -72.96860000
H      -43.00190000     -36.51180000     -72.46980000
C      -42.95390000     -34.51370000     -71.57590000
H      -42.01980000     -34.45310000     -70.94550000
H      -43.18720000     -33.53630000     -71.92270000
C      -43.48360000     -31.44040000     -70.01120000
H      -43.29690000     -30.69080000     -69.20880000
H      -42.56920000     -31.92410000     -70.00560000
C      -44.59580000     -32.36580000     -69.53570000
C      -45.62020000     -31.89270000     -68.68390000
C      -44.78060000     -33.83560000     -69.72620000
H      -45.93530000     -30.86970000     -68.52230000
C      -45.86220000     -34.43160000     -69.03890000
C      -44.12320000     -34.79330000     -70.60160000
C      -44.73800000     -35.99890000     -70.64420000
S      -46.65480000     -33.22930000     -68.06340000
S      -46.10830000     -36.14740000     -69.47830000
H      -44.56580000     -36.79330000     -71.25340000
