40
Properties=species:S:1:pos:R:3 #=T CELL(abcABC):=T 1.889726e+02=T 90.00000=T Traj:=T positionsangstrom=T Step:=T 0=T Bead:=T pbc="F F F"
C      -47.37330000     -34.36750000     -72.71220000
C      -46.19350000     -33.91220000     -73.40950000
C      -45.79660000     -32.57460000     -73.25680000
C      -46.46460000     -31.64680000     -72.46850000
C      -47.59010000     -32.15940000     -71.73830000
C      -48.02350000     -33.46700000     -71.89920000
H      -47.73600000     -35.38570000     -72.65550000
H      -44.90180000     -32.30180000     -73.78370000
H      -48.11610000     -31.55030000     -71.11960000
H      -48.76820000     -33.85990000     -71.28730000
C      -45.95730000     -30.23380000     -72.41840000
H      -46.77430000     -29.51470000     -72.38160000
H      -45.29120000     -29.96050000     -73.23290000
C      -45.42960000     -35.00980000     -74.16160000
H      -45.55860000     -35.96690000     -73.71190000
H      -45.78380000     -35.08850000     -75.16760000
S      -44.95680000     -29.88580000     -70.94220000
S      -43.57850000     -34.62630000     -74.32000000
C      -43.33750000     -30.85840000     -71.07800000
H      -43.54250000     -31.45170000     -72.00330000
H      -42.49900000     -30.24870000     -71.27440000
C      -42.85390000     -35.61070000     -72.86290000
H      -41.76990000     -35.69950000     -73.09110000
H      -43.29060000     -36.69330000     -72.84670000
C      -42.96210000     -34.87870000     -71.54420000
H      -42.07730000     -35.21780000     -70.92780000
H      -42.77540000     -33.78540000     -71.70530000
C      -43.17260000     -31.85370000     -69.87260000
H      -42.88650000     -31.23020000     -68.97310000
H      -42.41180000     -32.57100000     -70.31040000
C      -44.38130000     -32.61270000     -69.46440000
C      -45.39570000     -32.05100000     -68.72770000
C      -44.75560000     -34.01040000     -69.86760000
H      -45.47020000     -30.99700000     -68.36440000
C      -45.97350000     -34.38870000     -69.40600000
C      -44.23080000     -35.00090000     -70.79130000
C      -45.09440000     -36.09180000     -70.93900000
S      -46.72910000     -33.23640000     -68.43230000
S      -46.51870000     -35.90530000     -69.95130000
H      -44.70590000     -36.99090000     -71.29040000
