40
Properties=species:S:1:pos:R:3 #=T CELL(abcABC):=T 1.889726e+02=T 90.00000=T Traj:=T positionsangstrom=T Step:=T 0=T Bead:=T pbc="F F F"
C      -44.10040000     -30.73440000     -73.25010000
C      -45.33970000     -31.11540000     -73.65890000
C      -45.39410000     -32.29840000     -74.43250000
C      -44.31750000     -33.06740000     -74.69660000
C      -43.01390000     -32.55630000     -74.35320000
C      -42.92740000     -31.35650000     -73.69710000
H      -43.93750000     -29.80260000     -72.60030000
H      -46.30250000     -32.56570000     -74.89200000
H      -42.09670000     -33.03890000     -74.62810000
H      -41.95960000     -30.96290000     -73.61750000
C      -44.60890000     -34.37380000     -75.42000000
H      -43.72980000     -34.69880000     -76.01750000
H      -45.39160000     -34.25800000     -76.21150000
C      -46.71010000     -30.39950000     -73.31710000
H      -46.56760000     -29.47490000     -72.83830000
H      -47.17500000     -30.10000000     -74.28850000
S      -45.26120000     -35.83670000     -74.41430000
S      -47.90940000     -31.31470000     -72.32130000
C      -44.54620000     -35.60730000     -72.69080000
H      -44.55850000     -36.68350000     -72.37680000
H      -43.62530000     -35.06090000     -72.81790000
C      -46.88050000     -31.66100000     -70.80170000
H      -46.72000000     -30.73330000     -70.22830000
H      -45.87910000     -32.04790000     -71.07670000
C      -47.61240000     -32.61490000     -69.94920000
H      -48.39140000     -32.19860000     -69.36700000
H      -47.96970000     -33.38630000     -70.60150000
C      -45.35340000     -34.74570000     -71.75040000
H      -46.47900000     -34.84860000     -71.81330000
H      -45.22160000     -33.68010000     -72.07300000
C      -44.90100000     -34.83640000     -70.28700000
C      -43.78100000     -35.47180000     -69.86650000
C      -45.51710000     -34.08260000     -69.15390000
H      -43.12180000     -36.09030000     -70.43400000
C      -44.77360000     -34.26790000     -67.99010000
C      -46.65580000     -33.26380000     -68.92240000
C      -46.78370000     -32.82480000     -67.62240000
S      -43.34490000     -35.23860000     -68.09500000
S      -45.54310000     -33.51630000     -66.56730000
H      -47.55060000     -32.16670000     -67.29740000
