40
Properties=species:S:1:pos:R:3 #=T CELL(abcABC):=T 1.889726e+02=T 90.00000=T Traj:=T positionsangstrom=T Step:=T 0=T Bead:=T pbc="F F F"
C      -47.27200000     -34.42440000     -72.52850000
C      -46.18030000     -34.18800000     -73.39820000
C      -45.73720000     -32.82110000     -73.59180000
C      -46.31860000     -31.73530000     -72.87740000
C      -47.41400000     -32.07450000     -72.05300000
C      -47.85920000     -33.38160000     -71.86120000
H      -47.61330000     -35.47000000     -72.32960000
H      -44.93340000     -32.72150000     -74.33590000
H      -48.01920000     -31.32760000     -71.40280000
H      -48.68570000     -33.56720000     -71.13490000
C      -45.98710000     -30.32590000     -73.00370000
H      -46.85150000     -29.71410000     -72.99950000
H      -45.35920000     -29.99470000     -73.82790000
C      -45.51860000     -35.33800000     -74.14860000
H      -45.72560000     -36.27530000     -73.73260000
H      -46.05870000     -35.41600000     -75.16210000
S      -45.09380000     -29.75450000     -71.48420000
S      -43.68460000     -35.20280000     -74.38040000
C      -43.69620000     -30.94580000     -71.45060000
H      -43.96100000     -31.79920000     -72.01320000
H      -42.87060000     -30.36920000     -71.84040000
C      -42.81500000     -35.60890000     -72.74990000
H      -41.73560000     -35.65420000     -73.01320000
H      -43.16630000     -36.55370000     -72.47910000
C      -43.13060000     -34.55400000     -71.68310000
H      -42.15870000     -34.43720000     -71.20450000
H      -43.39630000     -33.61820000     -72.18740000
C      -43.47820000     -31.45940000     -70.00770000
H      -43.43270000     -30.59660000     -69.35920000
H      -42.52320000     -32.05630000     -69.86940000
C      -44.63310000     -32.31960000     -69.56120000
C      -45.57870000     -31.86070000     -68.54470000
C      -44.75270000     -33.74450000     -69.78330000
H      -45.65870000     -30.88610000     -68.05850000
C      -45.89490000     -34.25120000     -69.10570000
C      -44.15520000     -34.75580000     -70.64350000
C      -44.75960000     -35.98080000     -70.48240000
S      -46.71890000     -33.08740000     -68.08360000
S      -46.14340000     -36.00450000     -69.32550000
H      -44.41320000     -36.90340000     -70.80620000
