40
Properties=species:S:1:pos:R:3 #=T CELL(abcABC):=T 1.889726e+02=T 90.00000=T Traj:=T positionsangstrom=T Step:=T 0=T Bead:=T pbc="F F F"
C      -47.71140000     -34.26110000     -72.44990000
C      -46.62110000     -34.09300000     -73.25530000
C      -45.99010000     -32.79060000     -73.35250000
C      -46.52470000     -31.68540000     -72.70330000
C      -47.63260000     -31.85680000     -71.79280000
C      -48.12700000     -33.14290000     -71.64940000
H      -48.16860000     -35.25230000     -72.29710000
H      -45.18530000     -32.73610000     -74.10290000
H      -47.91830000     -30.91820000     -71.21770000
H      -48.94780000     -33.27130000     -70.94390000
C      -45.97940000     -30.29870000     -72.73170000
H      -46.79930000     -29.71770000     -72.36260000
H      -45.59350000     -30.05230000     -73.71420000
C      -46.02500000     -35.16790000     -74.04760000
H      -46.26190000     -36.13640000     -73.60420000
H      -46.50350000     -35.14430000     -74.99400000
S      -44.75670000     -30.04320000     -71.34600000
S      -44.25830000     -35.06680000     -74.43740000
C      -43.34830000     -31.29190000     -71.64430000
H      -43.76030000     -32.02800000     -72.26600000
H      -42.49480000     -30.84600000     -72.19480000
C      -43.32950000     -35.93430000     -73.13030000
H      -42.33490000     -35.98540000     -73.48080000
H      -43.77420000     -36.88190000     -72.92360000
C      -43.13910000     -35.00270000     -71.82540000
H      -42.32460000     -35.44110000     -71.29610000
H      -42.88560000     -34.01000000     -72.07260000
C      -42.82300000     -31.88950000     -70.28640000
H      -42.45970000     -31.07870000     -69.69140000
H      -42.06470000     -32.53980000     -70.61630000
C      -43.96870000     -32.52230000     -69.56200000
C      -44.65550000     -31.94890000     -68.56760000
C      -44.63910000     -33.77830000     -69.99280000
H      -44.32760000     -31.03470000     -68.04270000
C      -45.77500000     -34.04010000     -69.18520000
C      -44.27180000     -34.96040000     -70.85970000
C      -45.15000000     -36.05060000     -70.57100000
S      -46.04210000     -32.83850000     -67.97570000
S      -46.37100000     -35.66060000     -69.42860000
H      -45.20190000     -37.01890000     -71.09200000
