40
Properties=species:S:1:pos:R:3 #=T CELL(abcABC):=T 1.889726e+02=T 90.00000=T Traj:=T positionsangstrom=T Step:=T 0=T Bead:=T pbc="F F F"
C      -47.29680000     -34.59510000     -72.66650000
C      -46.18290000     -34.23730000     -73.50420000
C      -45.79960000     -32.91160000     -73.51030000
C      -46.45800000     -31.90040000     -72.83170000
C      -47.55000000     -32.26500000     -71.99420000
C      -47.92090000     -33.61990000     -71.86120000
H      -47.74640000     -35.54400000     -72.68130000
H      -44.98700000     -32.54850000     -74.17620000
H      -48.02880000     -31.43640000     -71.49850000
H      -48.74990000     -33.98080000     -71.31970000
C      -46.15370000     -30.43800000     -72.88220000
H      -46.97470000     -29.68280000     -72.97480000
H      -45.54950000     -30.22940000     -73.75940000
C      -45.34440000     -35.29460000     -74.31960000
H      -45.72780000     -36.27970000     -74.20110000
H      -45.58110000     -35.20250000     -75.37490000
S      -45.11340000     -29.84430000     -71.44930000
S      -43.51010000     -35.17030000     -74.27440000
C      -43.63830000     -30.96300000     -71.41930000
H      -43.66120000     -31.76360000     -72.14900000
H      -42.77390000     -30.32270000     -71.66930000
C      -42.95550000     -35.80730000     -72.65370000
H      -41.92480000     -36.23920000     -72.77320000
H      -43.47460000     -36.73620000     -72.35280000
C      -43.02090000     -34.75260000     -71.46850000
H      -42.14370000     -35.04430000     -70.81730000
H      -42.84100000     -33.79430000     -71.93560000
C      -43.25770000     -31.56650000     -70.07400000
H      -42.92680000     -30.87760000     -69.26470000
H      -42.30790000     -32.13790000     -70.18950000
C      -44.40970000     -32.35260000     -69.50650000
C      -45.18530000     -31.84010000     -68.43580000
C      -44.84070000     -33.65650000     -69.89410000
H      -45.05670000     -30.81640000     -68.02320000
C      -45.96250000     -34.06190000     -69.19430000
C      -44.37940000     -34.73010000     -70.71120000
C      -45.17470000     -35.82830000     -70.68150000
S      -46.47550000     -32.85150000     -67.99540000
S      -46.45000000     -35.72330000     -69.49060000
H      -44.85160000     -36.82380000     -71.03840000
