40
Properties=species:S:1:pos:R:3 #=T CELL(abcABC):=T 1.889726e+02=T 90.00000=T Traj:=T positionsangstrom=T Step:=T 0=T Bead:=T pbc="F F F"
C      -47.58040000     -34.58970000     -72.71070000
C      -46.35890000     -34.28060000     -73.33160000
C      -45.96100000     -32.93440000     -73.39660000
C      -46.59790000     -31.92150000     -72.70030000
C      -47.74210000     -32.25250000     -71.97750000
C      -48.29720000     -33.51700000     -72.10320000
H      -47.92410000     -35.60560000     -73.00490000
H      -45.03790000     -32.72180000     -73.99110000
H      -48.24120000     -31.43000000     -71.47450000
H      -49.26440000     -33.64540000     -71.77890000
C      -46.18640000     -30.50640000     -72.60030000
H      -47.01440000     -29.95460000     -72.28710000
H      -45.84900000     -30.05090000     -73.50200000
C      -45.67500000     -35.28020000     -74.21510000
H      -45.79250000     -36.26630000     -73.81150000
H      -46.04460000     -35.20990000     -75.25320000
S      -44.87890000     -29.93760000     -71.29480000
S      -43.77160000     -34.96730000     -74.38190000
C      -43.44890000     -31.13630000     -71.53600000
H      -43.78380000     -31.90510000     -72.20840000
H      -42.64020000     -30.57440000     -71.98390000
C      -43.21210000     -35.95830000     -72.89980000
H      -42.25190000     -36.33170000     -73.12160000
H      -43.99100000     -36.67940000     -72.77500000
C      -43.06510000     -35.11940000     -71.57820000
H      -42.35680000     -35.55790000     -70.85100000
H      -42.70780000     -34.12810000     -71.85000000
C      -42.99610000     -31.74860000     -70.26300000
H      -42.60320000     -31.03990000     -69.60500000
H      -42.17150000     -32.49100000     -70.36530000
C      -44.09890000     -32.45340000     -69.57970000
C      -44.70040000     -31.86160000     -68.48260000
C      -44.68720000     -33.71270000     -69.98250000
H      -44.53110000     -30.86750000     -68.03670000
C      -45.86370000     -33.94300000     -69.19350000
C      -44.28870000     -34.90250000     -70.77890000
C      -45.23700000     -35.91150000     -70.58740000
S      -46.06520000     -32.77720000     -67.89350000
S      -46.59070000     -35.39590000     -69.49940000
H      -45.26650000     -36.86640000     -71.08110000
