40
Properties=species:S:1:pos:R:3 #=T CELL(abcABC):=T 1.889726e+02=T 90.00000=T Traj:=T positionsangstrom=T Step:=T 0=T Bead:=T pbc="F F F"
C      -44.28450000     -31.75020000     -73.86240000
C      -45.70510000     -31.94470000     -74.02330000
C      -46.14750000     -33.16760000     -74.51750000
C      -45.21700000     -34.21620000     -74.71000000
C      -43.85750000     -34.03520000     -74.51150000
C      -43.37280000     -32.76270000     -74.12470000
H      -43.88040000     -30.74710000     -73.64330000
H      -47.12990000     -33.41100000     -74.64570000
H      -43.11910000     -34.76880000     -74.87010000
H      -42.29980000     -32.60360000     -73.98640000
C      -45.65940000     -35.63080000     -75.09050000
H      -44.80550000     -36.22780000     -75.29720000
H      -46.45550000     -35.68640000     -75.80420000
C      -46.59550000     -30.76700000     -73.69460000
H      -46.00830000     -29.79710000     -73.70470000
H      -47.29930000     -30.64650000     -74.59890000
S      -46.61210000     -36.20970000     -73.51000000
S      -47.76140000     -30.92320000     -72.30900000
C      -45.32120000     -36.00890000     -72.25280000
H      -45.01350000     -36.95770000     -71.76960000
H      -44.43300000     -35.71870000     -72.70490000
C      -46.56370000     -30.90940000     -70.94910000
H      -46.44940000     -29.85810000     -70.62070000
H      -45.56380000     -31.19790000     -71.32310000
C      -46.97950000     -31.97540000     -69.88910000
H      -47.81460000     -31.56010000     -69.28950000
H      -47.30190000     -32.80630000     -70.38690000
C      -45.91200000     -35.02370000     -71.13180000
H      -46.85720000     -35.46850000     -70.74640000
H      -46.16610000     -34.05050000     -71.57600000
C      -44.92770000     -34.71640000     -69.95660000
C      -43.86280000     -35.52190000     -69.55050000
C      -45.01900000     -33.57970000     -69.13680000
H      -43.53870000     -36.38460000     -70.14250000
C      -44.08570000     -33.61490000     -68.07160000
C      -45.83140000     -32.36060000     -69.05840000
C      -45.32900000     -31.47110000     -68.14190000
S      -42.97130000     -34.86290000     -68.12570000
S      -44.06950000     -32.13910000     -67.15010000
H      -45.70620000     -30.47510000     -68.02340000
