40
Properties=species:S:1:pos:R:3 #=T CELL(abcABC):=T 1.889726e+02=T 90.00000=T Traj:=T positionsangstrom=T Step:=T 0=T Bead:=T pbc="F F F"
C      -47.60360000     -33.71540000     -72.04700000
C      -46.50470000     -33.63800000     -72.94060000
C      -45.88270000     -32.38950000     -73.16120000
C      -46.24800000     -31.25150000     -72.39120000
C      -47.26480000     -31.33600000     -71.47160000
C      -47.97950000     -32.57070000     -71.31830000
H      -48.17420000     -34.62560000     -71.93960000
H      -45.06400000     -32.26400000     -73.87660000
H      -47.45980000     -30.54330000     -70.78280000
H      -48.81580000     -32.50050000     -70.64430000
C      -45.47390000     -30.02490000     -72.55090000
H      -46.08000000     -29.19120000     -72.16590000
H      -45.23280000     -29.84650000     -73.60420000
C      -46.29180000     -34.71190000     -73.93070000
H      -46.59990000     -35.63290000     -73.44700000
H      -46.93120000     -34.53450000     -74.76100000
S      -44.07520000     -29.97750000     -71.29540000
S      -44.65670000     -34.94600000     -74.68280000
C      -43.09330000     -31.44970000     -71.62280000
H      -43.58680000     -31.99720000     -72.45230000
H      -42.11110000     -31.21240000     -72.01420000
C      -43.82230000     -35.95260000     -73.31550000
H      -42.86640000     -36.41290000     -73.73850000
H      -44.44140000     -36.83340000     -73.11370000
C      -43.45170000     -35.22000000     -72.07730000
H      -42.51000000     -35.69090000     -71.66590000
H      -43.16050000     -34.17180000     -72.23630000
C      -42.90710000     -32.33040000     -70.42400000
H      -42.40580000     -31.66780000     -69.73170000
H      -42.18020000     -33.12820000     -70.64850000
C      -44.13430000     -32.90160000     -69.80390000
C      -44.76000000     -32.18360000     -68.80350000
C      -44.67880000     -34.20030000     -70.04820000
H      -44.53720000     -31.15300000     -68.54110000
C      -45.66350000     -34.45390000     -69.09760000
C      -44.50640000     -35.29340000     -70.97230000
C      -45.45790000     -36.32960000     -70.74430000
S      -46.09230000     -33.08580000     -68.09580000
S      -46.58030000     -35.92660000     -69.45740000
H      -45.44420000     -37.37040000     -71.17650000
