40
Properties=species:S:1:pos:R:3 #=T CELL(abcABC):=T 1.889726e+02=T 90.00000=T Traj:=T positionsangstrom=T Step:=T 0=T Bead:=T pbc="F F F"
C      -42.46260000     -31.91490000     -72.93980000
C      -43.73730000     -32.03010000     -72.37430000
C      -44.60670000     -33.00440000     -72.84590000
C      -44.15530000     -33.91960000     -73.75210000
C      -42.86240000     -33.83830000     -74.32990000
C      -42.03670000     -32.74890000     -73.98950000
H      -41.80200000     -31.13850000     -72.60350000
H      -45.62330000     -33.11740000     -72.50390000
H      -42.45590000     -34.66400000     -74.99980000
H      -41.06290000     -32.49370000     -74.48130000
C      -45.10160000     -35.05630000     -74.08890000
H      -45.09770000     -35.25580000     -75.17410000
H      -46.10320000     -34.88620000     -73.78740000
C      -43.98250000     -30.97930000     -71.30610000
H      -43.52000000     -29.97750000     -71.54190000
H      -45.11020000     -30.79650000     -71.11180000
S      -44.60960000     -36.68260000     -73.40400000
S      -43.24120000     -31.33910000     -69.70190000
C      -45.47660000     -36.86810000     -71.74600000
H      -46.53900000     -37.06230000     -71.93120000
H      -45.03780000     -37.76120000     -71.30490000
C      -43.52480000     -33.10680000     -69.18050000
H      -42.53590000     -33.41920000     -68.83710000
H      -43.63700000     -33.78990000     -70.11530000
C      -44.67390000     -33.30980000     -68.18400000
H      -44.77680000     -34.32740000     -67.93690000
H      -44.53060000     -32.71800000     -67.22470000
C      -45.42970000     -35.79050000     -70.69540000
H      -44.40760000     -35.35760000     -70.74050000
H      -45.48480000     -36.26290000     -69.68850000
C      -46.45960000     -34.68120000     -70.77510000
C      -47.37390000     -34.76490000     -71.72440000
C      -46.60200000     -33.42760000     -69.96920000
H      -47.68470000     -35.61550000     -72.25130000
C      -47.63410000     -32.69650000     -70.42820000
C      -45.96810000     -32.86470000     -68.78070000
C      -46.55890000     -31.68860000     -68.43610000
S      -48.51790000     -33.41740000     -71.83670000
S      -47.87360000     -31.12700000     -69.42910000
H      -46.25400000     -31.09210000     -67.57540000
