40
Properties=species:S:1:pos:R:3 #=T CELL(abcABC):=T 1.889726e+02=T 90.00000=T Traj:=T positionsangstrom=T Step:=T 0=T Bead:=T pbc="F F F"
C      -47.71580000     -33.66240000     -72.04190000
C      -46.79550000     -33.50730000     -73.06150000
C      -46.10350000     -32.29760000     -73.20020000
C      -46.20170000     -31.24900000     -72.29390000
C      -47.07630000     -31.50740000     -71.18460000
C      -47.81870000     -32.65250000     -71.07170000
H      -48.41050000     -34.48400000     -72.05060000
H      -45.45650000     -32.14140000     -74.07330000
H      -47.12990000     -30.69140000     -70.45060000
H      -48.53690000     -32.86250000     -70.25980000
C      -45.40110000     -29.99570000     -72.45020000
H      -45.95670000     -29.14160000     -72.30600000
H      -44.92650000     -30.02980000     -73.46200000
C      -46.53630000     -34.59240000     -74.06760000
H      -46.83840000     -35.57890000     -73.80020000
H      -47.11630000     -34.40270000     -74.95650000
S      -43.85890000     -30.04870000     -71.31520000
S      -44.76870000     -34.67030000     -74.64050000
C      -43.12120000     -31.70180000     -71.73180000
H      -43.66950000     -32.27320000     -72.50630000
H      -42.14700000     -31.47920000     -72.23440000
C      -44.01260000     -35.93700000     -73.51240000
H      -43.14170000     -36.15460000     -74.09050000
H      -44.80730000     -36.69880000     -73.30160000
C      -43.51260000     -35.30320000     -72.14050000
H      -42.60240000     -35.74150000     -71.67990000
H      -43.13280000     -34.23420000     -72.31020000
C      -42.83540000     -32.35390000     -70.36280000
H      -42.37730000     -31.57810000     -69.77060000
H      -42.05140000     -33.11260000     -70.38420000
C      -44.05220000     -32.90320000     -69.75330000
C      -44.61510000     -32.33840000     -68.62990000
C      -44.67570000     -34.14340000     -70.06330000
H      -44.18720000     -31.53870000     -68.01290000
C      -45.71840000     -34.49510000     -69.17020000
C      -44.56780000     -35.14180000     -71.07070000
C      -45.57160000     -36.11950000     -70.95550000
S      -45.93810000     -33.29200000     -67.96660000
S      -46.59150000     -35.93720000     -69.56770000
H      -45.74700000     -36.85850000     -71.71670000
