40
Properties=species:S:1:pos:R:3 #=T CELL(abcABC):=T 1.889726e+02=T 90.00000=T Traj:=T positionsangstrom=T Step:=T 0=T Bead:=T pbc="F F F"
C      -42.38090000     -31.87230000     -72.79480000
C      -43.72690000     -31.94840000     -72.31850000
C      -44.59900000     -32.91580000     -72.84760000
C      -44.16160000     -33.92060000     -73.68750000
C      -42.81610000     -33.91520000     -74.07180000
C      -41.96930000     -32.88750000     -73.65490000
H      -41.77170000     -31.01510000     -72.42730000
H      -45.57720000     -32.96590000     -72.37590000
H      -42.36910000     -34.70650000     -74.75730000
H      -40.92240000     -33.02250000     -74.05920000
C      -45.05170000     -35.08050000     -74.09260000
H      -44.77310000     -35.25090000     -75.12730000
H      -46.09090000     -34.79430000     -73.99620000
C      -44.26930000     -31.08590000     -71.24710000
H      -44.10320000     -30.08750000     -71.43260000
H      -45.32040000     -31.31570000     -70.96810000
S      -44.70140000     -36.75770000     -73.31510000
S      -43.21800000     -31.33810000     -69.69490000
C      -45.43360000     -36.87880000     -71.63450000
H      -46.44370000     -37.21970000     -71.61800000
H      -44.85580000     -37.69790000     -71.06920000
C      -43.46330000     -33.12390000     -69.39080000
H      -42.51420000     -33.46970000     -69.00520000
H      -43.76210000     -33.61470000     -70.30580000
C      -44.59450000     -33.45120000     -68.38180000
H      -44.69660000     -34.52870000     -68.17120000
H      -44.36670000     -33.01530000     -67.40900000
C      -45.37070000     -35.64410000     -70.83870000
H      -44.39100000     -35.15400000     -70.98630000
H      -45.33310000     -36.07070000     -69.87240000
C      -46.53060000     -34.65680000     -70.92400000
C      -47.52160000     -34.70610000     -71.87710000
C      -46.66360000     -33.44840000     -70.05310000
H      -47.50320000     -35.32650000     -72.75900000
C      -47.76980000     -32.70060000     -70.41920000
C      -45.86790000     -32.93950000     -68.89960000
C      -46.39910000     -31.70760000     -68.50280000
S      -48.51220000     -33.18030000     -71.81660000
S      -47.85530000     -31.20160000     -69.50440000
H      -46.12970000     -31.00130000     -67.68810000
