40
Properties=species:S:1:pos:R:3 #=T CELL(abcABC):=T 1.889726e+02=T 90.00000=T Traj:=T positionsangstrom=T Step:=T 0=T Bead:=T pbc="F F F"
C      -47.86590000     -33.67080000     -71.35930000
C      -47.22380000     -33.36210000     -72.60130000
C      -46.46440000     -32.16560000     -72.81130000
C      -46.37040000     -31.25850000     -71.70970000
C      -47.11590000     -31.53410000     -70.56850000
C      -47.78080000     -32.75490000     -70.34890000
H      -48.42540000     -34.58050000     -71.25870000
H      -46.11540000     -32.03060000     -73.87840000
H      -47.00620000     -30.98060000     -69.68930000
H      -48.32300000     -32.97870000     -69.44280000
C      -45.60720000     -29.98850000     -71.85260000
H      -46.15240000     -29.16980000     -71.51720000
H      -45.35250000     -29.80600000     -72.93240000
C      -47.39260000     -34.30300000     -73.74430000
H      -47.46400000     -35.27000000     -73.31410000
H      -48.32050000     -34.04980000     -74.24770000
S      -44.01190000     -30.12370000     -71.01960000
S      -45.99230000     -34.36600000     -75.04430000
C      -43.27930000     -31.48170000     -72.05760000
H      -44.05220000     -32.01510000     -72.63840000
H      -42.56860000     -31.08720000     -72.79530000
C      -44.79440000     -35.49160000     -74.13020000
H      -43.99830000     -35.83580000     -74.81520000
H      -45.33780000     -36.44440000     -73.96800000
C      -44.01280000     -34.95880000     -72.90560000
H      -43.08460000     -35.58470000     -72.79180000
H      -43.70810000     -33.91450000     -73.15190000
C      -42.60120000     -32.47500000     -71.13730000
H      -41.78480000     -32.03140000     -70.56890000
H      -42.12880000     -33.16350000     -71.78240000
C      -43.50570000     -33.15350000     -70.15320000
C      -43.52690000     -32.72300000     -68.85560000
C      -44.33960000     -34.28270000     -70.43490000
H      -43.04440000     -31.84890000     -68.50370000
C      -45.00830000     -34.64980000     -69.28060000
C      -44.67320000     -35.16800000     -71.57580000
C      -45.55600000     -36.12960000     -71.20480000
S      -44.61860000     -33.58420000     -67.85970000
S      -46.09480000     -36.04770000     -69.52000000
H      -45.97500000     -36.87190000     -71.91560000
