40
Properties=species:S:1:pos:R:3 #=T CELL(abcABC):=T 1.889726e+02=T 90.00000=T Traj:=T positionsangstrom=T Step:=T 0=T Bead:=T pbc="F F F"
C      -47.82160000     -33.63060000     -71.73170000
C      -46.97010000     -33.45320000     -72.86920000
C      -46.32300000     -32.23600000     -73.03880000
C      -46.37070000     -31.29410000     -71.99100000
C      -47.10030000     -31.55230000     -70.87110000
C      -47.88590000     -32.65350000     -70.69060000
H      -48.37520000     -34.54750000     -71.55340000
H      -45.61120000     -31.97470000     -73.83120000
H      -47.08400000     -30.85580000     -70.06100000
H      -48.57370000     -32.66810000     -69.82180000
C      -45.60040000     -29.99080000     -72.12450000
H      -46.12400000     -29.11200000     -71.89630000
H      -45.30360000     -29.81160000     -73.18680000
C      -46.96260000     -34.47470000     -73.99720000
H      -47.34030000     -35.43560000     -73.67880000
H      -47.61460000     -34.14450000     -74.82110000
S      -44.08310000     -30.03960000     -71.04400000
S      -45.34160000     -34.65680000     -74.88280000
C      -43.15650000     -31.40300000     -71.90030000
H      -43.84860000     -31.85650000     -72.64250000
H      -42.34760000     -30.98050000     -72.50410000
C      -44.49780000     -35.93870000     -73.80500000
H      -43.80570000     -36.49970000     -74.50690000
H      -45.32090000     -36.63730000     -73.64240000
C      -43.80090000     -35.30390000     -72.58280000
H      -42.90340000     -35.90520000     -72.35480000
H      -43.46660000     -34.31320000     -72.89410000
C      -42.61610000     -32.45970000     -70.95420000
H      -41.80870000     -31.92570000     -70.41800000
H      -42.06340000     -33.29060000     -71.37750000
C      -43.63280000     -33.11310000     -69.96800000
C      -43.82790000     -32.55340000     -68.72460000
C      -44.49610000     -34.22940000     -70.25690000
H      -43.22710000     -31.74950000     -68.24000000
C      -45.36810000     -34.50280000     -69.14410000
C      -44.66460000     -35.15850000     -71.34800000
C      -45.56920000     -36.15660000     -71.03640000
S      -45.19130000     -33.30970000     -67.91000000
S      -46.33640000     -35.87770000     -69.49610000
H      -45.96440000     -36.92510000     -71.68910000
