40
Properties=species:S:1:pos:R:3 #=T CELL(abcABC):=T 1.889726e+02=T 90.00000=T Traj:=T positionsangstrom=T Step:=T 0=T Bead:=T pbc="F F F"
C      -47.64660000     -33.67900000     -71.88960000
C      -46.80890000     -33.45560000     -72.99180000
C      -46.19110000     -32.20730000     -73.08780000
C      -46.38320000     -31.21300000     -72.08040000
C      -47.21680000     -31.46600000     -71.00730000
C      -47.80640000     -32.73000000     -70.88110000
H      -48.26580000     -34.60650000     -71.78190000
H      -45.59110000     -31.89270000     -73.95840000
H      -47.36020000     -30.71120000     -70.32100000
H      -48.50480000     -32.84640000     -70.03760000
C      -45.64210000     -29.93260000     -72.03530000
H      -46.18020000     -29.15990000     -71.51700000
H      -45.31360000     -29.58570000     -73.06350000
C      -46.78240000     -34.45540000     -74.07980000
H      -47.32320000     -35.32640000     -73.67060000
H      -47.44770000     -34.15010000     -74.94560000
S      -44.02940000     -30.01270000     -71.02880000
S      -45.20300000     -34.80410000     -74.91600000
C      -43.06560000     -31.39300000     -71.93680000
H      -43.65590000     -31.76340000     -72.76790000
H      -42.18630000     -30.94030000     -72.30990000
C      -44.23390000     -35.84520000     -73.73950000
H      -43.29910000     -36.04720000     -74.22470000
H      -44.73940000     -36.81630000     -73.60690000
C      -43.81640000     -35.23330000     -72.44920000
H      -42.87260000     -35.69910000     -72.14330000
H      -43.44480000     -34.18750000     -72.66400000
C      -42.68480000     -32.49390000     -70.88100000
H      -42.04090000     -31.94350000     -70.18510000
H      -42.06450000     -33.22230000     -71.39290000
C      -43.77190000     -33.07960000     -69.97130000
C      -44.04260000     -32.46920000     -68.79050000
C      -44.56220000     -34.28290000     -70.25710000
H      -43.45260000     -31.70050000     -68.33000000
C      -45.45550000     -34.48250000     -69.14530000
C      -44.71910000     -35.30440000     -71.24950000
C      -45.65960000     -36.23750000     -70.89600000
S      -45.31530000     -33.30020000     -67.89920000
S      -46.49990000     -35.85180000     -69.38560000
H      -46.10300000     -37.04880000     -71.49830000
