40
Properties=species:S:1:pos:R:3 #=T CELL(abcABC):=T 1.889726e+02=T 90.00000=T Traj:=T positionsangstrom=T Step:=T 0=T Bead:=T pbc="F F F"
C      -47.99490000     -33.60460000     -71.46930000
C      -47.32590000     -33.40210000     -72.76720000
C      -46.65920000     -32.19500000     -72.92800000
C      -46.50750000     -31.33080000     -71.85480000
C      -47.13620000     -31.57560000     -70.61620000
C      -47.92920000     -32.66620000     -70.47440000
H      -48.47910000     -34.54110000     -71.28200000
H      -46.04290000     -32.08040000     -73.81740000
H      -47.22070000     -30.74220000     -69.88370000
H      -48.49110000     -32.86820000     -69.57300000
C      -45.63880000     -30.05400000     -72.00320000
H      -46.19080000     -29.22710000     -71.45830000
H      -45.53150000     -29.73760000     -73.04830000
C      -47.24570000     -34.39230000     -73.87380000
H      -47.42460000     -35.45210000     -73.58510000
H      -48.10130000     -34.16460000     -74.53580000
S      -43.99490000     -30.16590000     -71.20620000
S      -45.74280000     -34.43110000     -74.93920000
C      -43.05560000     -31.55430000     -72.03920000
H      -43.72420000     -32.06230000     -72.77830000
H      -42.22460000     -31.16650000     -72.64560000
C      -44.56070000     -35.49660000     -73.98340000
H      -43.90700000     -35.90900000     -74.78430000
H      -45.13150000     -36.41040000     -73.60510000
C      -43.94890000     -34.79100000     -72.78050000
H      -42.95130000     -35.14590000     -72.79460000
H      -43.82140000     -33.74570000     -72.83760000
C      -42.49120000     -32.58420000     -71.09590000
H      -41.63070000     -32.13440000     -70.56720000
H      -42.05600000     -33.38390000     -71.69130000
C      -43.49070000     -33.11140000     -70.06230000
C      -43.62030000     -32.63540000     -68.76750000
C      -44.35630000     -34.27560000     -70.27740000
H      -43.06550000     -31.77410000     -68.31400000
C      -45.12370000     -34.59680000     -69.22630000
C      -44.65340000     -35.11190000     -71.44930000
C      -45.56290000     -36.09040000     -71.14200000
S      -44.89550000     -33.58110000     -67.84900000
S      -46.04270000     -35.98270000     -69.42630000
H      -46.00190000     -36.85940000     -71.79170000
