40
Properties=species:S:1:pos:R:3 #=T CELL(abcABC):=T 1.889726e+02=T 90.00000=T Traj:=T positionsangstrom=T Step:=T 0=T Bead:=T pbc="F F F"
C      -42.33350000     -32.01360000     -72.67460000
C      -43.66130000     -32.02750000     -72.24930000
C      -44.56130000     -33.02780000     -72.69600000
C      -44.10490000     -34.04440000     -73.58980000
C      -42.76760000     -34.05440000     -73.90370000
C      -41.89030000     -33.09130000     -73.44600000
H      -41.70010000     -31.18850000     -72.21130000
H      -45.64670000     -32.85130000     -72.52450000
H      -42.31300000     -34.83970000     -74.50590000
H      -40.87340000     -33.20780000     -73.74530000
C      -44.94660000     -35.16390000     -74.17500000
H      -44.91330000     -35.24710000     -75.28600000
H      -46.04160000     -34.92480000     -74.08840000
C      -44.19080000     -30.99220000     -71.26650000
H      -44.20140000     -29.98230000     -71.71230000
H      -45.22130000     -31.22990000     -71.01530000
S      -44.62830000     -36.85040000     -73.39560000
S      -43.23880000     -31.05770000     -69.61280000
C      -45.72430000     -36.88040000     -71.83810000
H      -46.77130000     -36.99550000     -72.14270000
H      -45.37340000     -37.78790000     -71.30670000
C      -43.21290000     -32.93260000     -69.24610000
H      -42.35280000     -33.22740000     -68.55990000
H      -42.95220000     -33.35980000     -70.16920000
C      -44.51000000     -33.44610000     -68.59770000
H      -44.50130000     -34.54990000     -68.84200000
H      -44.53950000     -33.28880000     -67.53940000
C      -45.54550000     -35.69590000     -70.92830000
H      -44.50380000     -35.32510000     -70.97080000
H      -45.69960000     -36.10860000     -69.86900000
C      -46.55420000     -34.53300000     -71.09350000
C      -47.69910000     -34.62100000     -71.89040000
C      -46.56360000     -33.38850000     -70.22840000
H      -47.98390000     -35.36440000     -72.65640000
C      -47.71180000     -32.60480000     -70.50900000
C      -45.74080000     -32.87990000     -69.17710000
C      -46.40580000     -31.76840000     -68.56310000
S      -48.66260000     -33.19740000     -71.77950000
S      -47.90380000     -31.25540000     -69.35350000
H      -46.21070000     -31.12480000     -67.71160000
