40
Properties=species:S:1:pos:R:3 #=T CELL(abcABC):=T 1.889726e+02=T 90.00000=T Traj:=T positionsangstrom=T Step:=T 0=T Bead:=T pbc="F F F"
C      -43.36550000     -30.43010000     -70.00810000
C      -44.35530000     -30.94230000     -69.15860000
C      -45.67260000     -30.74680000     -69.50400000
C      -46.01160000     -30.28140000     -70.77660000
C      -44.95360000     -29.99590000     -71.69250000
C      -43.60480000     -30.01350000     -71.30480000
H      -42.28680000     -30.48710000     -69.72880000
H      -46.46190000     -31.07580000     -68.78060000
H      -45.24040000     -29.58980000     -72.63810000
H      -42.84010000     -29.54350000     -71.89180000
C      -47.47660000     -29.97310000     -71.23450000
H      -47.47270000     -29.71720000     -72.22990000
H      -47.89980000     -29.17360000     -70.60360000
C      -43.92610000     -31.52880000     -67.84460000
H      -43.21680000     -30.81950000     -67.35210000
H      -44.77970000     -31.72360000     -67.18860000
S      -48.61720000     -31.35160000     -70.91150000
S      -42.88740000     -33.10590000     -68.07020000
C      -48.23940000     -32.74600000     -71.99640000
H      -49.14930000     -33.36490000     -72.10040000
H      -47.81480000     -32.32710000     -72.91730000
C      -43.91940000     -34.14370000     -69.34060000
H      -45.00710000     -34.19070000     -68.97610000
H      -43.49560000     -35.12900000     -69.24800000
C      -43.83810000     -33.70390000     -70.80010000
H      -44.64420000     -32.92010000     -70.96170000
H      -42.87600000     -33.34410000     -71.06680000
C      -47.14120000     -33.70530000     -71.45530000
H      -47.54690000     -34.18160000     -70.47610000
H      -46.41640000     -32.93030000     -71.28280000
C      -46.67500000     -34.78250000     -72.39720000
C      -47.40010000     -35.27470000     -73.50390000
C      -45.36320000     -35.31580000     -72.43150000
H      -48.44320000     -35.08300000     -73.71390000
C      -45.17150000     -36.38220000     -73.32150000
C      -44.13320000     -34.87900000     -71.69870000
C      -43.06870000     -35.70030000     -72.05190000
S      -46.58200000     -36.57420000     -74.38630000
S      -43.52920000     -36.97800000     -73.23140000
H      -42.07330000     -35.67960000     -71.66060000
