40
Properties=species:S:1:pos:R:3 #=T CELL(abcABC):=T 1.889726e+02=T 90.00000=T Traj:=T positionsangstrom=T Step:=T 0=T Bead:=T pbc="F F F"
C      -43.34460000     -30.72220000     -70.35040000
C      -44.29190000     -30.97600000     -69.30430000
C      -45.70690000     -30.68710000     -69.46820000
C      -46.19150000     -30.13060000     -70.65160000
C      -45.22460000     -29.81920000     -71.62640000
C      -43.84170000     -30.11640000     -71.53510000
H      -42.26120000     -30.87010000     -70.21660000
H      -46.31460000     -30.91100000     -68.60520000
H      -45.51300000     -29.38940000     -72.61240000
H      -43.17260000     -29.88440000     -72.39990000
C      -47.67470000     -29.91960000     -70.73820000
H      -47.93500000     -29.13420000     -71.51570000
H      -47.97240000     -29.41100000     -69.83780000
C      -43.95270000     -31.53200000     -67.95620000
H      -43.26180000     -30.96890000     -67.32250000
H      -44.93530000     -31.66160000     -67.45170000
S      -48.71320000     -31.39710000     -70.99120000
S      -43.18270000     -33.33880000     -67.98810000
C      -47.88040000     -32.40260000     -72.09230000
H      -48.60910000     -33.00980000     -72.66440000
H      -47.50580000     -31.81560000     -72.97010000
C      -43.96260000     -34.26660000     -69.44650000
H      -45.05020000     -34.05890000     -69.42440000
H      -44.01010000     -35.38040000     -69.25720000
C      -43.34300000     -33.96510000     -70.80070000
H      -43.50920000     -33.02510000     -71.14580000
H      -42.26340000     -34.04730000     -70.70520000
C      -46.82760000     -33.40030000     -71.48150000
H      -47.06780000     -33.71210000     -70.45510000
H      -45.88250000     -32.82300000     -71.31420000
C      -46.46620000     -34.57340000     -72.33790000
C      -47.36950000     -35.22440000     -73.12910000
C      -45.18030000     -35.18220000     -72.38490000
H      -48.40630000     -35.00170000     -73.35080000
C      -45.13650000     -36.26310000     -73.27300000
C      -43.85820000     -34.94800000     -71.82510000
C      -42.92090000     -35.85100000     -72.36410000
S      -46.61710000     -36.43860000     -74.11000000
S      -43.59740000     -37.05440000     -73.40180000
H      -41.86400000     -35.94170000     -72.09600000
