40
Properties=species:S:1:pos:R:3 #=T CELL(abcABC):=T 1.889726e+02=T 90.00000=T Traj:=T positionsangstrom=T Step:=T 0=T Bead:=T pbc="F F F"
C      -43.55840000     -30.28760000     -69.65960000
C      -44.53640000     -31.11970000     -69.08690000
C      -45.86750000     -31.08230000     -69.57280000
C      -46.15560000     -30.17240000     -70.62700000
C      -45.18160000     -29.29900000     -71.11890000
C      -43.86640000     -29.33510000     -70.64460000
H      -42.57310000     -30.47170000     -69.35100000
H      -46.74340000     -31.65400000     -69.18510000
H      -45.45030000     -28.50820000     -71.87480000
H      -43.05640000     -28.73590000     -71.03870000
C      -47.56640000     -29.96010000     -71.10350000
H      -47.56690000     -29.55810000     -72.13730000
H      -48.01400000     -29.19250000     -70.39990000
C      -44.04140000     -31.92550000     -67.87180000
H      -43.51920000     -31.33890000     -67.08790000
H      -44.91080000     -32.45630000     -67.42580000
S      -48.79570000     -31.30110000     -71.05710000
S      -42.76220000     -33.13760000     -68.37890000
C      -48.13810000     -32.67780000     -72.19990000
H      -48.81880000     -33.54960000     -72.19320000
H      -48.21160000     -32.25610000     -73.22570000
C      -43.45850000     -34.24630000     -69.68630000
H      -44.46800000     -34.60430000     -69.32130000
H      -42.85140000     -35.10420000     -69.47770000
C      -43.45280000     -33.77280000     -71.14950000
H      -44.11780000     -32.92320000     -71.30370000
H      -42.51440000     -33.31120000     -71.47940000
C      -46.69150000     -33.17560000     -71.95250000
H      -46.49010000     -33.45490000     -70.87480000
H      -45.99260000     -32.34640000     -72.18470000
C      -46.37720000     -34.44210000     -72.74350000
C      -47.24930000     -35.13030000     -73.50280000
C      -45.19670000     -35.26930000     -72.45710000
H      -48.27150000     -34.99410000     -73.60880000
C      -45.26400000     -36.46400000     -73.19500000
C      -43.85900000     -34.96430000     -71.99520000
C      -42.98200000     -36.06420000     -72.12160000
S      -46.70840000     -36.70520000     -74.06480000
S      -43.74520000     -37.32150000     -72.99650000
H      -41.91610000     -36.10950000     -71.90080000
