40
Properties=species:S:1:pos:R:3 #=T CELL(abcABC):=T 1.889726e+02=T 90.00000=T Traj:=T positionsangstrom=T Step:=T 0=T Bead:=T pbc="F F F"
C      -47.53060000     -32.95680000     -73.62520000
C      -48.03710000     -32.69200000     -72.37280000
C      -48.29160000     -33.80590000     -71.49140000
C      -48.10370000     -35.11000000     -71.95180000
C      -47.68480000     -35.33790000     -73.27910000
C      -47.31960000     -34.26350000     -74.09090000
H      -47.41440000     -32.14790000     -74.34670000
H      -48.49920000     -33.64060000     -70.49230000
H      -47.50360000     -36.34670000     -73.60990000
H      -46.92130000     -34.43110000     -75.12090000
C      -48.14070000     -36.35040000     -71.03200000
H      -47.89700000     -37.26770000     -71.57630000
H      -49.06590000     -36.35030000     -70.58680000
C      -48.32540000     -31.22190000     -71.94840000
H      -48.76050000     -30.81180000     -72.83380000
H      -49.02600000     -31.13360000     -71.11250000
S      -47.01680000     -36.20300000     -69.54530000
S      -46.72250000     -30.33960000     -71.47740000
C      -45.46900000     -35.83780000     -70.54850000
H      -45.20850000     -36.58120000     -71.28590000
H      -45.76350000     -35.05230000     -71.23950000
C      -46.34540000     -30.89830000     -69.78960000
H      -47.23670000     -31.17700000     -69.24970000
H      -45.81260000     -30.09960000     -69.29340000
C      -45.52910000     -32.20870000     -69.72770000
H      -45.31270000     -32.41870000     -68.64940000
H      -46.08590000     -33.10170000     -70.14950000
C      -44.38630000     -35.27230000     -69.66030000
H      -43.80220000     -36.07020000     -69.06990000
H      -44.88650000     -34.67220000     -68.92180000
C      -43.42460000     -34.62930000     -70.56980000
C      -42.42910000     -35.27290000     -71.29830000
C      -43.37790000     -33.15620000     -70.78420000
H      -42.23650000     -36.31060000     -71.45130000
C      -42.25550000     -32.82360000     -71.50440000
C      -44.20500000     -32.05130000     -70.40100000
C      -43.66390000     -30.86750000     -70.81260000
S      -41.31050000     -34.16960000     -72.02230000
S      -42.18640000     -31.15170000     -71.70540000
H      -43.98040000     -29.84260000     -70.61370000
