40
Properties=species:S:1:pos:R:3 #=T CELL(abcABC):=T 1.889726e+02=T 90.00000=T Traj:=T positionsangstrom=T Step:=T 0=T Bead:=T pbc="F F F"
C      -43.59640000     -29.65270000     -69.44270000
C      -44.48260000     -30.63240000     -69.01930000
C      -45.70820000     -30.73010000     -69.63960000
C      -46.09750000     -29.87570000     -70.68000000
C      -45.20950000     -28.82010000     -71.05520000
C      -43.91670000     -28.78760000     -70.49480000
H      -42.62680000     -29.59790000     -68.91490000
H      -46.41240000     -31.53240000     -69.37580000
H      -45.49900000     -28.16170000     -71.90370000
H      -43.23340000     -27.96440000     -70.78910000
C      -47.21990000     -30.19080000     -71.60790000
H      -46.67490000     -30.50750000     -72.46420000
H      -47.80600000     -29.32240000     -71.88370000
C      -44.17710000     -31.73440000     -68.07360000
H      -43.90840000     -31.38800000     -67.13410000
H      -45.03270000     -32.47020000     -67.96090000
S      -48.45790000     -31.42270000     -71.09100000
S      -42.74620000     -32.70870000     -68.74440000
C      -48.16420000     -32.91030000     -72.03260000
H      -48.64010000     -33.72200000     -71.42820000
H      -48.76060000     -32.83600000     -72.92600000
C      -43.70520000     -34.01820000     -69.63130000
H      -44.69270000     -33.80020000     -69.33760000
H      -43.43320000     -34.99470000     -69.18880000
C      -43.48450000     -33.93660000     -71.18400000
H      -43.79090000     -32.94500000     -71.54940000
H      -42.40530000     -33.94620000     -71.22520000
C      -46.64690000     -33.28080000     -72.36350000
H      -46.14610000     -33.11000000     -71.42710000
H      -46.22600000     -32.46380000     -73.04940000
C      -46.37660000     -34.65110000     -72.87370000
C      -47.34970000     -35.46510000     -73.47490000
C      -45.19680000     -35.43870000     -72.59300000
H      -48.41690000     -35.17270000     -73.49090000
C      -45.23990000     -36.77090000     -72.99940000
C      -44.00500000     -35.12900000     -71.90550000
C      -43.14710000     -36.20920000     -71.92780000
S      -46.87010000     -37.14670000     -73.67580000
S      -43.82160000     -37.63360000     -72.82160000
H      -42.10680000     -36.19320000     -71.55960000
