40
Properties=species:S:1:pos:R:3 #=T CELL(abcABC):=T 1.889726e+02=T 90.00000=T Traj:=T positionsangstrom=T Step:=T 0=T Bead:=T pbc="F F F"
C      -48.30250000     -34.42820000     -72.44040000
C      -48.59290000     -34.11690000     -71.01990000
C      -47.99230000     -34.94700000     -70.03350000
C      -47.12260000     -35.97680000     -70.40500000
C      -46.92040000     -36.33130000     -71.75340000
C      -47.58910000     -35.61110000     -72.76210000
H      -48.81390000     -33.74470000     -73.10960000
H      -48.24090000     -34.81410000     -68.96490000
H      -46.37180000     -37.21080000     -72.10790000
H      -47.44310000     -35.90630000     -73.78910000
C      -46.42140000     -36.74420000     -69.30310000
H      -46.24790000     -37.82000000     -69.64550000
H      -47.05890000     -36.63140000     -68.43230000
C      -49.37170000     -32.90250000     -70.70510000
H      -49.41310000     -32.34540000     -71.62370000
H      -50.41270000     -33.13780000     -70.37340000
S      -44.62910000     -36.23620000     -69.03890000
S      -48.34720000     -31.87080000     -69.47840000
C      -44.01090000     -35.21230000     -70.45380000
H      -43.34750000     -35.79920000     -71.13580000
H      -44.84990000     -34.84130000     -71.14450000
C      -47.02900000     -31.25120000     -70.57140000
H      -46.84320000     -30.20960000     -70.30890000
H      -47.50870000     -31.12170000     -71.53310000
C      -45.83270000     -32.09760000     -70.77010000
H      -45.24000000     -32.06170000     -69.85280000
H      -46.14410000     -33.11440000     -70.84340000
C      -43.10410000     -34.04160000     -69.91870000
H      -42.22070000     -34.35220000     -69.31430000
H      -43.58440000     -33.36500000     -69.23320000
C      -42.67680000     -33.15450000     -71.11690000
C      -41.44310000     -33.20520000     -71.63760000
C      -43.56180000     -32.23130000     -71.91560000
H      -40.68730000     -33.90220000     -71.29750000
C      -42.88140000     -31.78090000     -73.06540000
C      -44.91870000     -31.72010000     -71.89540000
C      -45.11990000     -30.79900000     -72.87510000
S      -41.18620000     -32.36460000     -73.18040000
S      -43.83720000     -30.61780000     -74.01730000
H      -46.08610000     -30.32890000     -72.96460000
