40
Properties=species:S:1:pos:R:3 #=T CELL(abcABC):=T 1.889726e+02=T 90.00000=T Traj:=T positionsangstrom=T Step:=T 0=T Bead:=T pbc="F F F"
C      -43.50990000     -29.51950000     -69.63660000
C      -44.28840000     -30.63530000     -69.20960000
C      -45.58700000     -30.80220000     -69.69810000
C      -46.06030000     -29.87750000     -70.68100000
C      -45.40910000     -28.66890000     -70.88780000
C      -44.07840000     -28.54700000     -70.44930000
H      -42.47300000     -29.40210000     -69.42660000
H      -46.15010000     -31.66830000     -69.54000000
H      -45.87400000     -27.85960000     -71.40080000
H      -43.46070000     -27.57570000     -70.48080000
C      -47.39050000     -30.03110000     -71.42260000
H      -47.16290000     -29.99310000     -72.50020000
H      -47.97670000     -29.12960000     -71.28680000
C      -43.77870000     -31.44000000     -68.10430000
H      -43.10080000     -30.78670000     -67.46920000
H      -44.53710000     -31.83710000     -67.50420000
S      -48.40990000     -31.48410000     -71.30490000
S      -42.73260000     -32.98000000     -68.62370000
C      -47.76820000     -32.56930000     -72.60590000
H      -48.62330000     -33.20010000     -72.71540000
H      -47.54410000     -32.04390000     -73.55870000
C      -43.99310000     -33.87340000     -69.70800000
H      -45.02330000     -33.45650000     -69.61370000
H      -44.01950000     -34.84260000     -69.22280000
C      -43.52940000     -33.98180000     -71.14100000
H      -43.89460000     -33.05780000     -71.63870000
H      -42.42270000     -33.79740000     -71.25960000
C      -46.55100000     -33.29930000     -72.14260000
H      -46.41130000     -33.34690000     -71.03930000
H      -45.77230000     -32.71190000     -72.57430000
C      -46.41810000     -34.73270000     -72.67700000
C      -47.42610000     -35.44270000     -73.24680000
C      -45.25160000     -35.54540000     -72.43930000
H      -48.45870000     -35.09160000     -73.30120000
C      -45.32480000     -36.75670000     -73.07810000
C      -43.95990000     -35.28840000     -71.86930000
C      -43.16920000     -36.43780000     -71.90110000
S      -46.90740000     -37.11080000     -73.67840000
S      -43.95680000     -37.75330000     -72.74590000
H      -42.12140000     -36.42780000     -71.62540000
