40
Properties=species:S:1:pos:R:3 #=T CELL(abcABC):=T 1.889726e+02=T 90.00000=T Traj:=T positionsangstrom=T Step:=T 0=T Bead:=T pbc="F F F"
C      -48.38890000     -34.39630000     -72.47860000
C      -48.46860000     -34.17700000     -71.11140000
C      -47.73580000     -35.02370000     -70.23190000
C      -47.05140000     -36.15400000     -70.71500000
C      -47.03840000     -36.42330000     -72.06660000
C      -47.67710000     -35.51100000     -72.93980000
H      -48.92470000     -33.71150000     -73.20490000
H      -47.76450000     -34.85510000     -69.14200000
H      -46.47990000     -37.24860000     -72.44970000
H      -47.69300000     -35.62080000     -74.01970000
C      -46.32190000     -37.04530000     -69.75590000
H      -46.04180000     -37.99200000     -70.27670000
H      -46.81250000     -37.31530000     -68.74560000
C      -49.38910000     -33.11760000     -70.51820000
H      -50.15340000     -32.84240000     -71.20950000
H      -49.95910000     -33.58460000     -69.69910000
S      -44.78330000     -36.27630000     -69.03650000
S      -48.57580000     -31.59540000     -69.81530000
C      -44.21710000     -35.27450000     -70.55170000
H      -43.75990000     -36.00540000     -71.21650000
H      -45.11370000     -34.83700000     -71.00060000
C      -47.26990000     -31.31290000     -71.05780000
H      -47.15410000     -30.24560000     -71.08440000
H      -47.71920000     -31.63130000     -71.96720000
C      -45.89040000     -31.98910000     -70.81080000
H      -45.48590000     -31.66490000     -69.82070000
H      -45.99530000     -33.09820000     -70.74870000
C      -43.31770000     -34.23790000     -69.92880000
H      -42.43360000     -34.74720000     -69.48930000
H      -43.84970000     -33.57140000     -69.21270000
C      -42.74230000     -33.21510000     -70.99040000
C      -41.46350000     -33.26650000     -71.44740000
C      -43.49940000     -32.26460000     -71.71130000
H      -40.81080000     -33.99490000     -70.94140000
C      -42.69630000     -31.67860000     -72.71920000
C      -44.82690000     -31.67920000     -71.75810000
C      -44.97280000     -30.64720000     -72.68630000
S      -41.08790000     -32.37370000     -72.84360000
S      -43.47800000     -30.44690000     -73.65760000
H      -45.83480000     -30.10010000     -72.99000000
