40
Properties=species:S:1:pos:R:3 #=T CELL(abcABC):=T 1.889726e+02=T 90.00000=T Traj:=T positionsangstrom=T Step:=T 0=T Bead:=T pbc="F F F"
C      -48.50580000     -34.25290000     -72.86670000
C      -48.49580000     -34.27310000     -71.47240000
C      -47.86640000     -35.33190000     -70.79420000
C      -46.99580000     -36.16400000     -71.50590000
C      -46.93630000     -36.08890000     -72.94760000
C      -47.65180000     -35.06530000     -73.57370000
H      -49.08450000     -33.48030000     -73.42740000
H      -47.89320000     -35.52550000     -69.65020000
H      -46.26560000     -36.68780000     -73.46860000
H      -47.64640000     -35.06980000     -74.70180000
C      -46.12760000     -37.19990000     -70.77150000
H      -45.51090000     -37.70770000     -71.49750000
H      -46.73570000     -37.89010000     -70.24140000
C      -49.40320000     -33.42080000     -70.64520000
H      -50.37960000     -33.48600000     -71.11690000
H      -49.37610000     -33.82480000     -69.61110000
S      -45.09090000     -36.51480000     -69.37200000
S      -48.92010000     -31.60660000     -70.63150000
C      -43.79880000     -35.47680000     -70.30880000
H      -42.90030000     -36.01850000     -70.31520000
H      -44.04800000     -35.29570000     -71.36130000
C      -47.33060000     -31.44470000     -71.50820000
H      -47.08020000     -30.42280000     -71.58800000
H      -47.43200000     -31.87660000     -72.55220000
C      -46.04910000     -32.16400000     -70.92170000
H      -45.70920000     -31.71790000     -69.95900000
H      -46.26830000     -33.23770000     -70.79520000
C      -43.77310000     -34.09600000     -69.52580000
H      -43.30300000     -34.26670000     -68.50010000
H      -44.78250000     -33.77570000     -69.36200000
C      -43.00660000     -33.08380000     -70.29810000
C      -41.65640000     -32.98620000     -70.12780000
C      -43.46550000     -32.21470000     -71.30040000
H      -41.03580000     -33.81360000     -69.67330000
C      -42.46640000     -31.50570000     -71.99120000
C      -44.76670000     -31.91230000     -71.77890000
C      -44.72010000     -30.98670000     -72.84990000
S      -40.86730000     -31.88650000     -71.31260000
S      -43.06210000     -30.53990000     -73.27010000
H      -45.46540000     -30.54120000     -73.42860000
