40
Properties=species:S:1:pos:R:3 #=T CELL(abcABC):=T 1.889726e+02=T 90.00000=T Traj:=T positionsangstrom=T Step:=T 0=T Bead:=T pbc="F F F"
C      -48.38110000     -34.43180000     -72.46760000
C      -48.58000000     -34.17450000     -71.08690000
C      -47.88950000     -34.99030000     -70.08890000
C      -47.11250000     -36.08310000     -70.54240000
C      -46.94460000     -36.31590000     -71.89300000
C      -47.57560000     -35.56150000     -72.84060000
H      -48.85590000     -33.79490000     -73.21590000
H      -47.96380000     -34.63600000     -69.09400000
H      -46.31100000     -37.13830000     -72.19160000
H      -47.42900000     -35.84660000     -73.82350000
C      -46.41290000     -36.94050000     -69.51500000
H      -46.38470000     -37.97040000     -69.74800000
H      -46.99950000     -36.94180000     -68.61800000
C      -49.43460000     -32.97890000     -70.69510000
H      -49.92210000     -32.45790000     -71.54710000
H      -50.22680000     -33.36960000     -70.05600000
S      -44.69710000     -36.27410000     -69.09400000
S      -48.44400000     -31.79570000     -69.64470000
C      -44.20990000     -35.19420000     -70.44490000
H      -43.71900000     -35.76840000     -71.20190000
H      -45.12170000     -34.80430000     -70.91910000
C      -47.13750000     -31.14430000     -70.83670000
H      -46.85160000     -30.02930000     -70.65020000
H      -47.50740000     -31.29430000     -71.87340000
C      -45.86970000     -31.97410000     -70.70620000
H      -45.38100000     -31.61440000     -69.77090000
H      -46.04540000     -33.05500000     -70.54800000
C      -43.24730000     -34.05160000     -69.93280000
H      -42.49860000     -34.56960000     -69.33730000
H      -43.93690000     -33.39640000     -69.32160000
C      -42.69640000     -33.27580000     -71.14650000
C      -41.45620000     -33.46420000     -71.60670000
C      -43.46020000     -32.22380000     -71.86180000
H      -40.74790000     -34.19050000     -71.22720000
C      -42.72160000     -31.68080000     -72.90420000
C      -44.85650000     -31.71760000     -71.79580000
C      -45.07760000     -30.74690000     -72.76910000
S      -41.05970000     -32.25630000     -72.93580000
S      -43.69220000     -30.59920000     -73.83830000
H      -45.95720000     -30.30140000     -73.10390000
