40
Properties=species:S:1:pos:R:3 #=T CELL(abcABC):=T 1.889726e+02=T 90.00000=T Traj:=T positionsangstrom=T Step:=T 0=T Bead:=T pbc="F F F"
C      -48.81240000     -34.52930000     -72.44790000
C      -48.50310000     -34.34480000     -71.11590000
C      -47.57300000     -35.12930000     -70.46000000
C      -46.88650000     -36.14700000     -71.17110000
C      -47.09620000     -36.19150000     -72.57850000
C      -48.09660000     -35.41210000     -73.22030000
H      -49.60690000     -33.95970000     -72.88760000
H      -47.35560000     -35.01170000     -69.42380000
H      -46.50590000     -36.89320000     -73.23690000
H      -48.23860000     -35.52440000     -74.27530000
C      -46.03890000     -37.15200000     -70.46480000
H      -45.32940000     -37.68420000     -71.14560000
H      -46.73920000     -37.81890000     -70.05530000
C      -49.32760000     -33.30120000     -70.32240000
H      -50.34840000     -33.32610000     -70.67600000
H      -49.51150000     -33.55400000     -69.31400000
S      -44.99520000     -36.55900000     -69.07270000
S      -48.58500000     -31.59810000     -70.24230000
C      -43.70190000     -35.48940000     -69.95350000
H      -42.69200000     -35.78060000     -69.86650000
H      -43.93700000     -35.59310000     -70.99920000
C      -47.45160000     -31.55630000     -71.68960000
H      -47.41740000     -30.41140000     -71.88330000
H      -47.86720000     -31.96000000     -72.62230000
C      -46.05270000     -32.09420000     -71.26700000
H      -45.90860000     -31.99580000     -70.20070000
H      -46.01530000     -33.17680000     -71.30830000
C      -43.79460000     -34.00330000     -69.63000000
H      -43.29770000     -33.85110000     -68.68610000
H      -44.85340000     -33.73200000     -69.51970000
C      -43.04950000     -33.14600000     -70.74190000
C      -41.71800000     -33.31430000     -70.87540000
C      -43.53470000     -32.09380000     -71.66200000
H      -40.95240000     -33.66020000     -70.18270000
C      -42.49960000     -31.55320000     -72.42000000
C      -44.87250000     -31.55620000     -71.98570000
C      -44.80330000     -30.52090000     -72.86300000
S      -40.90730000     -32.23790000     -72.03770000
S      -43.11240000     -30.22420000     -73.40790000
H      -45.68400000     -30.01980000     -73.22010000
