40
Properties=species:S:1:pos:R:3 #=T CELL(abcABC):=T 1.889726e+02=T 90.00000=T Traj:=T positionsangstrom=T Step:=T 0=T Bead:=T pbc="F F F"
C      -48.65950000     -34.41060000     -72.62390000
C      -48.51810000     -34.32380000     -71.24250000
C      -47.65170000     -35.19490000     -70.55480000
C      -46.96210000     -36.18590000     -71.28620000
C      -47.06910000     -36.21210000     -72.68960000
C      -47.95560000     -35.35370000     -73.33100000
H      -49.31240000     -33.74760000     -73.17870000
H      -47.54290000     -35.08120000     -69.46080000
H      -46.52860000     -36.96820000     -73.25390000
H      -47.92360000     -35.44680000     -74.41250000
C      -46.01160000     -37.15810000     -70.64610000
H      -45.35350000     -37.53040000     -71.40280000
H      -46.47910000     -38.15330000     -70.24250000
C      -49.33650000     -33.31960000     -70.48900000
H      -50.35540000     -33.27060000     -70.93900000
H      -49.33260000     -33.59000000     -69.41580000
S      -44.94900000     -36.57150000     -69.30150000
S      -48.73530000     -31.60610000     -70.38950000
C      -43.76450000     -35.45590000     -70.03950000
H      -42.78280000     -35.81060000     -69.70020000
H      -43.88490000     -35.57890000     -71.16040000
C      -47.44210000     -31.36030000     -71.71050000
H      -47.19680000     -30.28900000     -71.78050000
H      -47.77250000     -31.62940000     -72.70790000
C      -46.16250000     -32.13220000     -71.25220000
H      -46.14550000     -32.07680000     -70.16810000
H      -46.25520000     -33.17850000     -71.57900000
C      -43.90070000     -33.96960000     -69.62590000
H      -43.61620000     -33.88430000     -68.54900000
H      -44.92880000     -33.61760000     -69.57920000
C      -42.99170000     -33.06180000     -70.43490000
C      -41.63550000     -33.20250000     -70.53510000
C      -43.53450000     -32.08530000     -71.37600000
H      -40.93120000     -33.90440000     -69.95490000
C      -42.51070000     -31.50310000     -72.12900000
C      -44.86780000     -31.63860000     -71.81890000
C      -44.73210000     -30.69260000     -72.82850000
S      -40.87180000     -32.09390000     -71.75010000
S      -43.09670000     -30.44740000     -73.37200000
H      -45.50180000     -30.28740000     -73.39050000
