40
Properties=species:S:1:pos:R:3 #=T CELL(abcABC):=T 1.889726e+02=T 90.00000=T Traj:=T positionsangstrom=T Step:=T 0=T Bead:=T pbc="F F F"
C      -48.53710000     -34.49930000     -71.76390000
C      -48.42730000     -34.19630000     -70.41240000
C      -47.51980000     -34.87570000     -69.57540000
C      -46.81780000     -35.92370000     -70.06600000
C      -46.92180000     -36.27720000     -71.40790000
C      -47.79410000     -35.60830000     -72.24970000
H      -49.18780000     -33.93490000     -72.35000000
H      -47.31220000     -34.54310000     -68.53040000
H      -46.34360000     -37.11930000     -71.82090000
H      -47.92760000     -35.81460000     -73.28460000
C      -45.87520000     -36.65870000     -69.20650000
H      -45.54240000     -37.48900000     -69.88750000
H      -46.19450000     -37.08270000     -68.26350000
C      -49.21770000     -33.08030000     -69.74570000
H      -50.01330000     -32.65690000     -70.39970000
H      -49.72360000     -33.38740000     -68.84980000
S      -44.46680000     -35.53600000     -68.75780000
S      -48.03410000     -31.81980000     -69.17520000
C      -43.73230000     -35.21070000     -70.41390000
H      -43.16940000     -36.11530000     -70.72990000
H      -44.61950000     -35.06270000     -71.04660000
C      -47.05930000     -31.39110000     -70.71850000
H      -47.01000000     -30.34020000     -70.73680000
H      -47.59690000     -31.75920000     -71.61140000
C      -45.58510000     -31.93890000     -70.66210000
H      -45.12430000     -31.27600000     -69.97130000
H      -45.45330000     -32.95680000     -70.26800000
C      -42.91630000     -33.93820000     -70.34650000
H      -41.81090000     -34.12540000     -70.05950000
H      -43.25850000     -33.13730000     -69.69600000
C      -42.72710000     -33.25090000     -71.67250000
C      -41.60640000     -33.48620000     -72.48870000
C      -43.61780000     -32.38910000     -72.30960000
H      -40.82370000     -34.24110000     -72.33580000
C      -43.17720000     -31.86480000     -73.53500000
C      -44.94900000     -31.81890000     -71.94910000
C      -45.41130000     -30.93230000     -72.90860000
S      -41.68640000     -32.58360000     -73.98760000
S      -44.28810000     -30.83760000     -74.33990000
H      -46.17580000     -30.19750000     -72.89880000
