40
Properties=species:S:1:pos:R:3 #=T CELL(abcABC):=T 1.889726e+02=T 90.00000=T Traj:=T positionsangstrom=T Step:=T 0=T Bead:=T pbc="F F F"
C      -46.58370000     -30.09790000     -70.54070000
C      -47.56570000     -30.99200000     -70.09420000
C      -48.32630000     -31.80360000     -70.96700000
C      -48.17840000     -31.58730000     -72.34840000
C      -47.22670000     -30.63190000     -72.82750000
C      -46.42660000     -29.89150000     -71.96740000
H      -45.90440000     -29.55070000     -69.80710000
H      -48.94060000     -32.51770000     -70.52600000
H      -47.18420000     -30.37550000     -73.89270000
H      -45.75570000     -29.13150000     -72.35270000
C      -48.83920000     -32.40500000     -73.42070000
H      -48.56690000     -32.04980000     -74.39020000
H      -49.89460000     -32.33530000     -73.16800000
C      -47.62640000     -31.23010000     -68.59370000
H      -47.03570000     -30.46330000     -68.04750000
H      -48.60220000     -31.36360000     -68.21800000
S      -48.44390000     -34.20250000     -73.49030000
S      -46.84840000     -32.82900000     -68.13730000
C      -46.59980000     -34.40790000     -73.43530000
H      -46.42510000     -35.42630000     -73.90930000
H      -46.13470000     -33.79450000     -74.20800000
C      -45.16290000     -32.67270000     -69.08050000
H      -44.73230000     -31.80840000     -68.71260000
H      -45.36230000     -32.44520000     -70.14950000
C      -44.43380000     -34.02970000     -68.88250000
H      -44.04300000     -34.05910000     -67.82420000
H      -45.05710000     -34.84360000     -68.99300000
C      -45.91880000     -34.30340000     -72.09860000
H      -46.38470000     -35.11610000     -71.48440000
H      -46.16530000     -33.35680000     -71.55400000
C      -44.39990000     -34.56710000     -72.25550000
C      -43.87270000     -34.83930000     -73.50620000
C      -43.33830000     -34.55860000     -71.20790000
H      -44.37610000     -34.75540000     -74.50040000
C      -42.14590000     -34.87630000     -71.82920000
C      -43.28910000     -34.24680000     -69.81800000
C      -41.98570000     -34.56650000     -69.35980000
S      -42.17010000     -35.30030000     -73.48150000
S      -40.84490000     -35.03610000     -70.62050000
H      -41.74340000     -34.45730000     -68.34580000
