40
Properties=species:S:1:pos:R:3 #=T CELL(abcABC):=T 1.889726e+02=T 90.00000=T Traj:=T positionsangstrom=T Step:=T 0=T Bead:=T pbc="F F F"
C      -48.53080000     -34.98990000     -70.50730000
C      -47.98300000     -34.31130000     -69.40660000
C      -46.80860000     -34.77260000     -68.85020000
C      -46.24910000     -36.01140000     -69.21760000
C      -46.84050000     -36.76080000     -70.27350000
C      -47.94570000     -36.18020000     -70.92260000
H      -49.41800000     -34.56700000     -70.96470000
H      -46.37150000     -34.30550000     -67.95300000
H      -46.54100000     -37.68870000     -70.62700000
H      -48.49670000     -36.66250000     -71.74590000
C      -45.07310000     -36.56470000     -68.60200000
H      -44.83320000     -37.61730000     -68.96540000
H      -45.08900000     -36.45590000     -67.47130000
C      -48.68380000     -33.03830000     -68.88310000
H      -49.63420000     -32.93140000     -69.34750000
H      -48.97050000     -33.13640000     -67.84850000
S      -43.60780000     -35.38300000     -68.90310000
S      -47.72930000     -31.50400000     -69.08030000
C      -43.74590000     -34.80430000     -70.67480000
H      -43.30200000     -35.55620000     -71.31670000
H      -44.73100000     -34.50130000     -70.97500000
C      -47.18320000     -31.33580000     -70.83400000
H      -47.18350000     -30.28040000     -70.98570000
H      -48.01330000     -31.79990000     -71.39100000
C      -45.89610000     -32.08750000     -71.10620000
H      -45.23060000     -31.86310000     -70.23710000
H      -46.08850000     -33.16850000     -71.00000000
C      -42.90910000     -33.50900000     -70.80070000
H      -41.90190000     -33.80870000     -70.52750000
H      -43.20320000     -32.75300000     -69.98860000
C      -42.98050000     -33.05390000     -72.21770000
C      -41.93150000     -33.26710000     -73.09020000
C      -44.05490000     -32.35330000     -72.84880000
H      -40.93370000     -33.66560000     -72.80930000
C      -43.77300000     -32.03280000     -74.19050000
C      -45.36180000     -31.80410000     -72.42400000
C      -45.95160000     -31.05980000     -73.42180000
S      -42.14990000     -32.55660000     -74.63780000
S      -44.99720000     -31.10540000     -74.98350000
H      -46.94800000     -30.62910000     -73.48680000
