40
Properties=species:S:1:pos:R:3 #=T CELL(abcABC):=T 1.889726e+02=T 90.00000=T Traj:=T positionsangstrom=T Step:=T 0=T Bead:=T pbc="F F F"
C      -48.70070000     -34.90190000     -71.00530000
C      -48.32160000     -34.34330000     -69.78510000
C      -47.22000000     -34.93260000     -69.15150000
C      -46.47630000     -36.01600000     -69.63550000
C      -46.88320000     -36.57160000     -70.90710000
C      -48.01800000     -36.03390000     -71.51450000
H      -49.59030000     -34.53920000     -71.54260000
H      -46.86510000     -34.61660000     -68.17040000
H      -46.33940000     -37.48360000     -71.32940000
H      -48.30000000     -36.44760000     -72.45680000
C      -45.29720000     -36.59650000     -68.93630000
H      -44.71570000     -37.37980000     -69.55490000
H      -45.64480000     -37.03110000     -67.99230000
C      -48.93520000     -33.13010000     -69.17870000
H      -49.82040000     -32.94240000     -69.76680000
H      -49.29590000     -33.25120000     -68.14580000
S      -43.91810000     -35.40680000     -68.62150000
S      -47.85420000     -31.61750000     -69.12050000
C      -43.59220000     -35.01420000     -70.43440000
H      -43.00200000     -35.82650000     -70.90550000
H      -44.52850000     -34.92720000     -70.92930000
C      -47.17080000     -31.50580000     -70.79290000
H      -47.29210000     -30.44680000     -71.09970000
H      -47.70070000     -32.06510000     -71.53360000
C      -45.76310000     -31.97510000     -70.96300000
H      -45.10240000     -31.39450000     -70.21920000
H      -45.72800000     -33.04710000     -70.71960000
C      -42.89730000     -33.57870000     -70.56780000
H      -41.87490000     -33.53560000     -70.10180000
H      -43.52430000     -32.92490000     -70.02940000
C      -42.93460000     -33.14280000     -71.98650000
C      -41.89010000     -33.39770000     -72.81490000
C      -43.88630000     -32.19370000     -72.63980000
H      -41.24870000     -34.24610000     -72.55490000
C      -43.51440000     -31.93340000     -73.94730000
C      -45.18040000     -31.71790000     -72.34300000
C      -45.70140000     -30.99350000     -73.33620000
S      -41.87670000     -32.49360000     -74.34870000
S      -44.64560000     -30.97770000     -74.80740000
H      -46.62830000     -30.48660000     -73.18680000
