40
Properties=species:S:1:pos:R:3 #=T CELL(abcABC):=T 1.889726e+02=T 90.00000=T Traj:=T positionsangstrom=T Step:=T 0=T Bead:=T pbc="F F F"
C      -47.63290000     -33.87200000     -68.94970000
C      -46.69620000     -33.22520000     -68.10170000
C      -45.41770000     -33.86640000     -67.95620000
C      -45.14880000     -35.08570000     -68.61160000
C      -46.16840000     -35.67740000     -69.41180000
C      -47.42050000     -35.14450000     -69.55620000
H      -48.65200000     -33.47210000     -68.93930000
H      -44.60900000     -33.42530000     -67.42090000
H      -46.03170000     -36.59720000     -69.93020000
H      -48.11240000     -35.65380000     -70.18300000
C      -43.92390000     -35.84980000     -68.48560000
H      -44.11420000     -36.94480000     -68.39040000
H      -43.39270000     -35.70710000     -67.63100000
C      -46.90800000     -31.82120000     -67.62230000
H      -48.00490000     -31.58890000     -67.74930000
H      -46.67890000     -31.59800000     -66.55250000
S      -42.55880000     -35.42710000     -69.75260000
S      -46.03190000     -30.54070000     -68.55570000
C      -43.51200000     -35.06640000     -71.30030000
H      -43.61090000     -36.03340000     -71.82120000
H      -44.50740000     -34.73050000     -70.96900000
C      -46.55850000     -30.87120000     -70.31450000
H      -46.51280000     -29.90220000     -70.78460000
H      -47.58840000     -31.15990000     -70.40650000
C      -45.53890000     -31.93640000     -71.04380000
H      -44.60800000     -31.50890000     -70.82850000
H      -45.48600000     -32.89800000     -70.56550000
C      -42.86300000     -33.95180000     -72.13470000
H      -41.74930000     -34.07930000     -72.37480000
H      -42.93540000     -33.09210000     -71.38980000
C      -43.65170000     -33.63850000     -73.40910000
C      -43.36610000     -34.18940000     -74.59890000
C      -44.89120000     -32.89820000     -73.41160000
H      -42.51450000     -34.90700000     -74.77790000
C      -45.48950000     -32.99400000     -74.66160000
C      -45.81710000     -32.20610000     -72.51050000
C      -46.93420000     -31.69890000     -73.13060000
S      -44.59070000     -33.96680000     -75.79210000
S      -47.10170000     -32.30720000     -74.78310000
H      -47.78270000     -31.23980000     -72.71470000
