40
Properties=species:S:1:pos:R:3 #=T CELL(abcABC):=T 1.889726e+02=T 90.00000=T Traj:=T positionsangstrom=T Step:=T 0=T Bead:=T pbc="F F F"
C      -47.67250000     -33.97870000     -69.04000000
C      -46.76050000     -33.30930000     -68.21340000
C      -45.51410000     -33.90900000     -68.04810000
C      -45.26090000     -35.14460000     -68.55260000
C      -46.17030000     -35.78460000     -69.38480000
C      -47.35320000     -35.13630000     -69.66700000
H      -48.48050000     -33.46340000     -69.39290000
H      -44.75160000     -33.40820000     -67.46230000
H      -45.94690000     -36.71100000     -69.86840000
H      -48.10740000     -35.56860000     -70.35450000
C      -43.87850000     -35.78070000     -68.33440000
H      -43.95570000     -36.90150000     -68.28130000
H      -43.45480000     -35.36400000     -67.44750000
C      -47.00860000     -31.94520000     -67.63650000
H      -48.04980000     -31.79290000     -67.50710000
H      -46.54120000     -31.88630000     -66.70860000
S      -42.59290000     -35.42460000     -69.67240000
S      -46.17740000     -30.53610000     -68.65780000
C      -43.58870000     -35.18470000     -71.25930000
H      -43.43840000     -36.05180000     -71.91690000
H      -44.64690000     -35.04630000     -71.17810000
C      -46.59090000     -30.92060000     -70.40190000
H      -46.60670000     -29.97170000     -70.98680000
H      -47.57420000     -31.43840000     -70.35110000
C      -45.48950000     -31.80630000     -71.07630000
H      -44.48170000     -31.32760000     -71.24350000
H      -45.34010000     -32.66860000     -70.44580000
C      -42.93530000     -33.97860000     -71.98470000
H      -41.92690000     -34.22430000     -72.19760000
H      -42.82830000     -33.07390000     -71.41490000
C      -43.69940000     -33.72610000     -73.24890000
C      -43.18340000     -34.16430000     -74.39680000
C      -44.99600000     -33.03430000     -73.38280000
H      -42.30450000     -34.77010000     -74.50530000
C      -45.52300000     -33.09860000     -74.66520000
C      -45.91850000     -32.23670000     -72.48890000
C      -46.94850000     -31.64870000     -73.17520000
S      -44.30980000     -33.80410000     -75.77900000
S      -47.01740000     -32.17480000     -74.85060000
H      -47.77230000     -31.01290000     -72.76500000
