40
Properties=species:S:1:pos:R:3 #=T CELL(abcABC):=T 1.889726e+02=T 90.00000=T Traj:=T positionsangstrom=T Step:=T 0=T Bead:=T pbc="F F F"
C      -48.36640000     -34.73170000     -69.44520000
C      -47.48250000     -33.89750000     -68.69960000
C      -46.21770000     -34.39740000     -68.36460000
C      -45.76330000     -35.67310000     -68.77960000
C      -46.64010000     -36.49580000     -69.50000000
C      -47.99400000     -36.04150000     -69.73540000
H      -49.29580000     -34.27260000     -69.64240000
H      -45.53130000     -33.88930000     -67.69520000
H      -46.46750000     -37.52550000     -69.89880000
H      -48.72890000     -36.72220000     -70.16580000
C      -44.34080000     -36.09810000     -68.55160000
H      -43.98170000     -37.00320000     -69.12140000
H      -44.00520000     -36.24140000     -67.53870000
C      -47.95100000     -32.55540000     -68.25840000
H      -48.95690000     -32.27150000     -68.57110000
H      -48.03170000     -32.57300000     -67.15740000
S      -43.15460000     -34.82240000     -69.13060000
S      -46.77780000     -31.15530000     -68.68890000
C      -43.49360000     -34.63550000     -70.95500000
H      -43.22680000     -35.58340000     -71.39120000
H      -44.52250000     -34.45220000     -71.07800000
C      -46.87420000     -31.14240000     -70.54380000
H      -46.88410000     -30.06470000     -70.85690000
H      -47.78640000     -31.70040000     -70.82700000
C      -45.71510000     -32.01430000     -71.06790000
H      -44.80000000     -31.83440000     -70.44220000
H      -45.99260000     -33.07560000     -70.89710000
C      -42.66780000     -33.47290000     -71.48820000
H      -41.54620000     -33.61010000     -71.46950000
H      -42.90600000     -32.53700000     -70.97700000
C      -43.14540000     -33.28500000     -72.92280000
C      -42.45090000     -33.76110000     -74.02830000
C      -44.44960000     -32.67410000     -73.24460000
H      -41.54490000     -34.26980000     -73.98570000
C      -44.65160000     -32.66650000     -74.64710000
C      -45.48170000     -31.90750000     -72.54550000
C      -46.34920000     -31.33860000     -73.44550000
S      -43.36450000     -33.40650000     -75.50600000
S      -46.05900000     -31.69320000     -75.12770000
H      -47.20080000     -30.63870000     -73.33750000
