40
Properties=species:S:1:pos:R:3 #=T CELL(abcABC):=T 1.889726e+02=T 90.00000=T Traj:=T positionsangstrom=T Step:=T 0=T Bead:=T pbc="F F F"
C      -48.03210000     -34.34220000     -69.17000000
C      -47.12110000     -33.59920000     -68.44660000
C      -45.89030000     -34.14340000     -68.06300000
C      -45.59430000     -35.41590000     -68.64050000
C      -46.50040000     -36.10340000     -69.38400000
C      -47.75580000     -35.57800000     -69.67510000
H      -48.95110000     -33.92910000     -69.57220000
H      -45.20340000     -33.61370000     -67.40320000
H      -46.19420000     -37.05910000     -69.75250000
H      -48.50020000     -36.06140000     -70.33560000
C      -44.21840000     -35.97710000     -68.47520000
H      -44.17160000     -37.00640000     -68.86390000
H      -43.92630000     -36.04990000     -67.42240000
C      -47.60710000     -32.26360000     -67.94210000
H      -48.74740000     -32.19850000     -68.06310000
H      -47.38630000     -32.16770000     -66.88490000
S      -42.79240000     -35.10850000     -69.37040000
S      -46.56500000     -30.86240000     -68.55710000
C      -43.44720000     -34.74470000     -71.05160000
H      -43.35480000     -35.64300000     -71.69000000
H      -44.55690000     -34.60990000     -70.90970000
C      -46.55420000     -31.15040000     -70.39630000
H      -46.69200000     -30.16650000     -70.95010000
H      -47.44220000     -31.76140000     -70.63370000
C      -45.38230000     -31.82360000     -71.11550000
H      -44.38780000     -31.36000000     -71.02630000
H      -45.38200000     -32.79880000     -70.58570000
C      -42.76820000     -33.59540000     -71.81260000
H      -41.71640000     -33.92670000     -71.98930000
H      -42.66230000     -32.71680000     -71.14880000
C      -43.44740000     -33.45290000     -73.13000000
C      -42.88120000     -33.91050000     -74.27600000
C      -44.72120000     -32.85680000     -73.41940000
H      -41.94670000     -34.51880000     -74.37080000
C      -45.06600000     -32.82050000     -74.75860000
C      -45.62870000     -32.05340000     -72.59550000
C      -46.67990000     -31.55180000     -73.34540000
S      -43.82530000     -33.74450000     -75.70520000
S      -46.53680000     -31.94450000     -75.03330000
H      -47.43130000     -30.89590000     -72.94860000
