40
Properties=species:S:1:pos:R:3 #=T CELL(abcABC):=T 1.889726e+02=T 90.00000=T Traj:=T positionsangstrom=T Step:=T 0=T Bead:=T pbc="F F F"
C      -48.28860000     -34.53860000     -69.19700000
C      -47.33740000     -33.72270000     -68.56580000
C      -46.02220000     -34.18790000     -68.36900000
C      -45.61380000     -35.46790000     -68.78840000
C      -46.59320000     -36.25580000     -69.48520000
C      -47.89570000     -35.78480000     -69.71880000
H      -49.33190000     -34.26450000     -69.29160000
H      -45.20940000     -33.55010000     -67.90930000
H      -46.43110000     -37.21370000     -69.93150000
H      -48.70540000     -36.41850000     -70.10850000
C      -44.26730000     -35.93870000     -68.54270000
H      -44.21770000     -36.93210000     -68.93330000
H      -44.02790000     -36.00360000     -67.43470000
C      -47.62950000     -32.33410000     -68.05660000
H      -48.62770000     -32.04310000     -68.28580000
H      -47.55750000     -32.27570000     -66.99780000
S      -42.89970000     -34.88470000     -69.17370000
S      -46.39090000     -31.14800000     -68.64660000
C      -43.25840000     -34.86510000     -70.97140000
H      -42.95400000     -35.75980000     -71.46640000
H      -44.35750000     -34.75120000     -71.11050000
C      -46.84830000     -31.18140000     -70.52490000
H      -47.13330000     -30.15580000     -70.81490000
H      -47.78700000     -31.71900000     -70.72160000
C      -45.61680000     -31.82590000     -71.12520000
H      -44.81290000     -31.30390000     -70.61650000
H      -45.52690000     -32.86850000     -70.78960000
C      -42.80520000     -33.57240000     -71.57430000
H      -41.70050000     -33.53670000     -71.63170000
H      -43.08420000     -32.64820000     -71.06230000
C      -43.38930000     -33.42360000     -73.03020000
C      -42.80960000     -33.93580000     -74.14070000
C      -44.49590000     -32.56560000     -73.37850000
H      -41.92120000     -34.55000000     -74.24350000
C      -44.81030000     -32.56770000     -74.70350000
C      -45.56320000     -31.91000000     -72.59720000
C      -46.62380000     -31.53620000     -73.39570000
S      -43.75200000     -33.57590000     -75.61680000
S      -46.39090000     -31.94370000     -75.05620000
H      -47.53490000     -31.15420000     -73.12210000
