40
Properties=species:S:1:pos:R:3 #=T CELL(abcABC):=T 1.889726e+02=T 90.00000=T Traj:=T positionsangstrom=T Step:=T 0=T Bead:=T pbc="F F F"
C      -46.52570000     -30.12780000     -70.52460000
C      -47.44170000     -31.14100000     -70.10930000
C      -48.18460000     -31.90210000     -71.05620000
C      -47.92900000     -31.65130000     -72.43850000
C      -47.05500000     -30.61640000     -72.89580000
C      -46.34520000     -29.88510000     -71.88620000
H      -45.97420000     -29.57260000     -69.86030000
H      -48.78760000     -32.71490000     -70.62120000
H      -46.84930000     -30.30890000     -73.94870000
H      -45.67560000     -29.11970000     -72.16540000
C      -48.49550000     -32.65470000     -73.46130000
H      -47.88840000     -32.56260000     -74.35690000
H      -49.52860000     -32.37160000     -73.61660000
C      -47.68230000     -31.40100000     -68.60290000
H      -47.38730000     -30.55330000     -68.09230000
H      -48.71230000     -31.62930000     -68.36710000
S      -48.51340000     -34.33370000     -72.82080000
S      -46.81040000     -32.85150000     -67.88600000
C      -46.80730000     -34.86160000     -73.22310000
H      -46.77760000     -35.94240000     -73.06410000
H      -46.49620000     -34.66780000     -74.27890000
C      -45.23580000     -32.90470000     -68.99920000
H      -44.40370000     -32.40640000     -68.41530000
H      -45.45630000     -32.31560000     -69.85960000
C      -44.74040000     -34.34620000     -69.18570000
H      -44.42600000     -34.62940000     -68.24200000
H      -45.39980000     -35.14790000     -69.48750000
C      -45.86130000     -34.08550000     -72.28170000
H      -46.12510000     -34.34360000     -71.27220000
H      -46.01800000     -32.97370000     -72.40110000
C      -44.40440000     -34.43560000     -72.56040000
C      -43.81100000     -34.57370000     -73.81610000
C      -43.40750000     -34.48980000     -71.50740000
H      -44.33350000     -34.66750000     -74.71010000
C      -42.11820000     -34.82110000     -71.88130000
C      -43.49970000     -34.44000000     -70.05860000
C      -42.24510000     -34.53170000     -69.47780000
S      -42.10250000     -34.95810000     -73.68530000
S      -40.93120000     -34.70450000     -70.65530000
H      -42.02290000     -34.62490000     -68.38230000
