40
Properties=species:S:1:pos:R:3 #=T CELL(abcABC):=T 1.889726e+02=T 90.00000=T Traj:=T positionsangstrom=T Step:=T 0=T Bead:=T pbc="F F F"
C      -41.89080000     -35.72440000     -70.54000000
C      -43.18890000     -36.15590000     -70.82430000
C      -44.20420000     -35.88620000     -69.81770000
C      -43.92040000     -35.22790000     -68.60480000
C      -42.66350000     -34.61400000     -68.46200000
C      -41.72850000     -34.92070000     -69.39550000
H      -41.06970000     -35.97040000     -71.20640000
H      -45.21290000     -36.31350000     -70.03400000
H      -42.43880000     -34.02620000     -67.56730000
H      -40.70680000     -34.49370000     -69.32190000
C      -45.02030000     -34.93830000     -67.56990000
H      -44.57370000     -34.37050000     -66.78760000
H      -45.36800000     -35.88810000     -67.21820000
C      -43.60890000     -36.90120000     -72.06610000
H      -42.73800000     -37.38120000     -72.56670000
H      -44.35950000     -37.62370000     -71.94030000
S      -46.51890000     -34.16960000     -68.28510000
S      -44.31280000     -35.84390000     -73.36650000
C      -45.95210000     -32.43490000     -68.73390000
H      -45.69920000     -31.89050000     -67.81540000
H      -44.99850000     -32.29900000     -69.21690000
C      -46.06780000     -35.64110000     -72.83550000
H      -46.27100000     -36.34320000     -72.02400000
H      -46.77230000     -35.82700000     -73.64820000
C      -46.34280000     -34.33440000     -72.04830000
H      -47.41910000     -34.52560000     -71.81070000
H      -45.77190000     -34.36100000     -71.12460000
C      -47.09220000     -31.82490000     -69.55450000
H      -47.65490000     -31.10770000     -68.93210000
H      -47.84620000     -32.60020000     -69.84540000
C      -46.71560000     -31.12050000     -70.89720000
C      -46.95460000     -29.78710000     -71.02620000
C      -46.42530000     -31.73360000     -72.21080000
H      -47.21900000     -29.22980000     -70.15770000
C      -46.18490000     -30.69190000     -73.12730000
C      -46.22680000     -33.03290000     -72.83940000
C      -46.01810000     -32.95570000     -74.21430000
S      -46.57640000     -29.09400000     -72.60170000
S      -45.93170000     -31.24010000     -74.71120000
H      -45.67360000     -33.68250000     -74.91010000
