40
Properties=species:S:1:pos:R:3 #=T CELL(abcABC):=T 1.889726e+02=T 90.00000=T Traj:=T positionsangstrom=T Step:=T 0=T Bead:=T pbc="F F F"
C      -41.92700000     -35.60760000     -70.34130000
C      -43.21810000     -36.08270000     -70.62280000
C      -44.25840000     -35.84150000     -69.71560000
C      -44.00620000     -35.06600000     -68.53670000
C      -42.72770000     -34.56680000     -68.29820000
C      -41.67630000     -34.90640000     -69.15780000
H      -41.12350000     -36.06230000     -70.96950000
H      -45.26570000     -36.26170000     -69.81510000
H      -42.53700000     -33.97420000     -67.40650000
H      -40.67570000     -34.67840000     -68.75560000
C      -45.14210000     -34.88520000     -67.52480000
H      -44.76630000     -34.20170000     -66.77200000
H      -45.43340000     -35.84250000     -67.04440000
C      -43.38670000     -36.84010000     -71.93170000
H      -42.42550000     -37.04620000     -72.35280000
H      -43.97150000     -37.75260000     -71.78060000
S      -46.67550000     -34.09370000     -68.20980000
S      -44.16700000     -35.67140000     -73.20120000
C      -46.15590000     -32.57110000     -69.15050000
H      -45.78140000     -31.84560000     -68.45520000
H      -45.37490000     -32.97840000     -69.84180000
C      -45.87800000     -35.56840000     -72.71610000
H      -45.93390000     -36.49430000     -72.13130000
H      -46.48940000     -35.57810000     -73.59420000
C      -46.21020000     -34.24610000     -71.95770000
H      -47.15050000     -34.36340000     -71.38250000
H      -45.39290000     -34.06090000     -71.21910000
C      -47.42600000     -31.90850000     -69.85110000
H      -47.84100000     -31.06910000     -69.17410000
H      -48.19160000     -32.63880000     -69.95270000
C      -47.03560000     -31.22130000     -71.16090000
C      -46.96920000     -29.86480000     -71.09960000
C      -46.50840000     -31.73880000     -72.38410000
H      -47.30330000     -29.23740000     -70.24540000
C      -46.27830000     -30.74980000     -73.33730000
C      -46.29500000     -33.05340000     -72.89020000
C      -45.81020000     -33.11290000     -74.16260000
S      -46.42150000     -29.12450000     -72.65450000
S      -45.82760000     -31.49050000     -74.88370000
H      -45.65030000     -33.93600000     -74.87580000
