40
Properties=species:S:1:pos:R:3 #=T CELL(abcABC):=T 1.889726e+02=T 90.00000=T Traj:=T positionsangstrom=T Step:=T 0=T Bead:=T pbc="F F F"
C      -41.97550000     -35.37190000     -70.23630000
C      -43.18440000     -35.95570000     -70.47120000
C      -44.22060000     -35.81870000     -69.53730000
C      -44.03010000     -35.05170000     -68.38700000
C      -42.78580000     -34.46430000     -68.14030000
C      -41.70860000     -34.71100000     -68.98490000
H      -41.18590000     -35.34160000     -71.01080000
H      -45.12910000     -36.25550000     -69.70350000
H      -42.58740000     -33.89420000     -67.26820000
H      -40.76050000     -34.30540000     -68.83600000
C      -45.19750000     -34.74110000     -67.37440000
H      -44.93320000     -33.98610000     -66.64070000
H      -45.39930000     -35.70830000     -66.87870000
C      -43.41690000     -36.78640000     -71.69790000
H      -42.44460000     -37.13480000     -72.12170000
H      -44.10710000     -37.61030000     -71.49110000
S      -46.71890000     -34.17530000     -68.28880000
S      -44.08710000     -35.76510000     -73.12420000
C      -46.16680000     -32.55630000     -69.09450000
H      -45.78130000     -31.80920000     -68.40010000
H      -45.24190000     -32.78650000     -69.54230000
C      -45.90830000     -35.69160000     -72.82340000
H      -46.13860000     -36.55020000     -72.18800000
H      -46.44480000     -35.97010000     -73.75180000
C      -46.45000000     -34.39210000     -72.15650000
H      -47.59520000     -34.49430000     -72.19320000
H      -45.99570000     -34.25020000     -71.18620000
C      -47.30960000     -32.05960000     -70.01010000
H      -48.04080000     -31.49750000     -69.36280000
H      -47.83100000     -32.93840000     -70.39540000
C      -46.85600000     -31.21740000     -71.13990000
C      -46.99680000     -29.86800000     -71.30130000
C      -46.34080000     -31.78290000     -72.38130000
H      -47.47950000     -29.21280000     -70.61440000
C      -46.13290000     -30.77520000     -73.33650000
C      -46.19790000     -33.12630000     -72.93420000
C      -45.79060000     -33.07420000     -74.23790000
S      -46.66430000     -29.16280000     -72.86390000
S      -45.66020000     -31.43440000     -74.87060000
H      -45.83450000     -33.87840000     -74.95770000
