40
Properties=species:S:1:pos:R:3 #=T CELL(abcABC):=T 1.889726e+02=T 90.00000=T Traj:=T positionsangstrom=T Step:=T 0=T Bead:=T pbc="F F F"
C      -42.16750000     -35.64460000     -71.20030000
C      -43.50290000     -36.23330000     -71.08130000
C      -44.25270000     -35.99740000     -69.87960000
C      -43.76890000     -35.16670000     -68.90700000
C      -42.44000000     -34.58740000     -68.98880000
C      -41.68860000     -34.86270000     -70.13720000
H      -41.57740000     -35.77740000     -72.08650000
H      -45.27670000     -36.35040000     -69.71350000
H      -42.04320000     -33.99200000     -68.19460000
H      -40.70860000     -34.32300000     -70.26410000
C      -44.56410000     -34.90090000     -67.68250000
H      -44.05200000     -34.13380000     -67.03820000
H      -44.79600000     -35.87320000     -67.25330000
C      -43.94750000     -37.07310000     -72.15810000
H      -43.24170000     -37.79930000     -72.61930000
H      -44.87140000     -37.70280000     -71.87620000
S      -46.33730000     -34.32660000     -67.90460000
S      -44.48060000     -36.09600000     -73.63510000
C      -45.94280000     -32.69730000     -68.74750000
H      -45.85940000     -31.83550000     -68.04220000
H      -45.05400000     -32.70870000     -69.33370000
C      -46.20940000     -35.40620000     -73.13770000
H      -46.74430000     -36.24460000     -72.67480000
H      -46.68990000     -35.06120000     -74.08720000
C      -46.35900000     -34.27310000     -72.20920000
H      -47.29120000     -34.40590000     -71.78450000
H      -45.61240000     -34.40640000     -71.38410000
C      -47.14660000     -32.31950000     -69.63910000
H      -48.01190000     -31.94090000     -69.07120000
H      -47.57410000     -33.26480000     -70.07880000
C      -46.77960000     -31.27670000     -70.68910000
C      -46.92410000     -29.89330000     -70.55250000
C      -46.30810000     -31.59990000     -72.01620000
H      -47.29840000     -29.26220000     -69.75280000
C      -46.23310000     -30.52510000     -72.84800000
C      -46.05250000     -32.84450000     -72.76620000
C      -45.79880000     -32.58130000     -74.09940000
S      -46.61650000     -29.04780000     -72.08350000
S      -45.93320000     -30.87620000     -74.48020000
H      -45.63180000     -33.38930000     -74.77010000
