40
Properties=species:S:1:pos:R:3 #=T CELL(abcABC):=T 1.889726e+02=T 90.00000=T Traj:=T positionsangstrom=T Step:=T 0=T Bead:=T pbc="F F F"
C      -47.05840000     -34.63270000     -69.59720000
C      -47.48390000     -34.71480000     -70.92370000
C      -47.72470000     -33.50910000     -71.60500000
C      -47.58180000     -32.24350000     -70.97690000
C      -47.20970000     -32.21470000     -69.63850000
C      -46.90850000     -33.41950000     -68.92880000
H      -46.76050000     -35.60700000     -69.02320000
H      -48.14450000     -33.55330000     -72.60280000
H      -47.09350000     -31.27440000     -69.12890000
H      -46.59850000     -33.36970000     -67.85550000
C      -47.77570000     -31.03290000     -71.80750000
H      -48.28520000     -30.19370000     -71.16920000
H      -48.47440000     -31.16350000     -72.62440000
C      -47.73890000     -36.00950000     -71.61770000
H      -47.15490000     -36.74560000     -71.12590000
H      -48.81110000     -36.22950000     -71.47850000
S      -46.29190000     -30.31300000     -72.46000000
S      -47.10000000     -36.04920000     -73.36420000
C      -45.54300000     -31.55140000     -73.51890000
H      -46.13070000     -32.45880000     -73.33840000
H      -45.74250000     -31.19750000     -74.57360000
C      -45.29200000     -36.30750000     -73.22330000
H      -45.01680000     -36.66450000     -74.18780000
H      -45.13350000     -37.01960000     -72.45760000
C      -44.49480000     -35.03710000     -73.03250000
H      -43.54770000     -35.15220000     -73.53800000
H      -45.03980000     -34.18190000     -73.44410000
C      -44.01650000     -31.75090000     -73.30970000
H      -43.63550000     -30.72790000     -73.58690000
H      -43.65180000     -32.48740000     -74.07930000
C      -43.63020000     -32.01780000     -71.86680000
C      -43.21720000     -31.06170000     -71.04730000
C      -43.66450000     -33.34230000     -71.16770000
H      -42.90480000     -30.03090000     -71.38800000
C      -43.13190000     -33.27340000     -69.87530000
C      -44.10830000     -34.69340000     -71.54650000
C      -43.79360000     -35.62680000     -70.55990000
S      -42.62430000     -31.61910000     -69.48640000
S      -43.06520000     -34.83440000     -69.15650000
H      -43.98140000     -36.73810000     -70.69340000
