40
Properties=species:S:1:pos:R:3 #=T CELL(abcABC):=T 1.889726e+02=T 90.00000=T Traj:=T positionsangstrom=T Step:=T 0=T Bead:=T pbc="F F F"
C      -47.14280000     -34.58050000     -69.58800000
C      -47.49230000     -34.71500000     -70.93930000
C      -47.83570000     -33.54390000     -71.64650000
C      -47.54870000     -32.30670000     -71.07140000
C      -47.15740000     -32.21890000     -69.70080000
C      -46.99060000     -33.41340000     -68.96140000
H      -46.94790000     -35.54400000     -69.08430000
H      -48.08460000     -33.58920000     -72.70070000
H      -47.03510000     -31.21740000     -69.28490000
H      -46.85630000     -33.37040000     -67.87850000
C      -47.90250000     -30.93790000     -71.70730000
H      -48.15290000     -30.14980000     -71.01910000
H      -48.67570000     -31.10360000     -72.43360000
C      -47.52830000     -36.08330000     -71.59400000
H      -46.85780000     -36.84930000     -71.07380000
H      -48.52240000     -36.56710000     -71.56260000
S      -46.37490000     -30.22540000     -72.56820000
S      -47.07340000     -36.22680000     -73.39580000
C      -45.51070000     -31.67810000     -73.38800000
H      -46.00400000     -32.57150000     -72.94420000
H      -45.76260000     -31.75660000     -74.42210000
C      -45.18600000     -36.25940000     -73.27350000
H      -44.90100000     -36.79450000     -74.23850000
H      -44.92430000     -37.04230000     -72.46760000
C      -44.48760000     -34.94570000     -72.95090000
H      -43.57900000     -34.91890000     -73.57890000
H      -45.04090000     -34.12810000     -73.48970000
C      -43.98060000     -31.73860000     -73.24890000
H      -43.53720000     -30.84770000     -73.52780000
H      -43.56580000     -32.49860000     -73.92310000
C      -43.49730000     -31.99690000     -71.85290000
C      -43.01080000     -31.05830000     -71.05050000
C      -43.67300000     -33.26400000     -71.20180000
H      -42.78480000     -30.05020000     -71.32500000
C      -43.10030000     -33.28360000     -69.95450000
C      -44.14870000     -34.53940000     -71.53810000
C      -43.83740000     -35.50610000     -70.59080000
S      -42.57170000     -31.66000000     -69.41540000
S      -43.21400000     -34.81750000     -69.10270000
H      -44.10730000     -36.56790000     -70.68150000
