40
Properties=species:S:1:pos:R:3 #=T CELL(abcABC):=T 1.889726e+02=T 90.00000=T Traj:=T positionsangstrom=T Step:=T 0=T Bead:=T pbc="F F F"
C      -43.12840000     -33.61580000     -70.79720000
C      -43.62450000     -34.62450000     -69.91160000
C      -44.53880000     -34.34210000     -68.92070000
C      -44.82640000     -32.95900000     -68.58900000
C      -44.31950000     -31.91540000     -69.43710000
C      -43.57740000     -32.28280000     -70.58120000
H      -42.35240000     -33.92760000     -71.49840000
H      -44.92370000     -35.12710000     -68.31740000
H      -44.50330000     -30.89400000     -69.19190000
H      -43.13280000     -31.57240000     -71.24620000
C      -45.68810000     -32.55480000     -67.44310000
H      -45.45160000     -31.46700000     -67.24920000
H      -45.29620000     -32.99570000     -66.52860000
C      -43.27710000     -36.08670000     -70.16960000
H      -42.20710000     -36.28630000     -69.88090000
H      -43.81430000     -36.70700000     -69.48760000
S      -47.51480000     -32.83410000     -67.59650000
S      -43.26850000     -36.65650000     -71.96400000
C      -47.85330000     -32.14300000     -69.39440000
H      -48.99180000     -32.10060000     -69.30980000
H      -47.49950000     -31.09620000     -69.38590000
C      -45.04580000     -36.74840000     -72.50130000
H      -45.47280000     -37.61590000     -71.98580000
H      -45.01250000     -37.06320000     -73.54640000
C      -45.93200000     -35.48510000     -72.15290000
H      -46.95420000     -35.81280000     -72.42870000
H      -45.77270000     -35.19010000     -71.09600000
C      -47.44710000     -33.08110000     -70.54110000
H      -48.27500000     -33.78280000     -70.82740000
H      -46.67880000     -33.68680000     -70.12210000
C      -46.94630000     -32.26670000     -71.78540000
C      -46.94570000     -30.87910000     -71.89390000
C      -46.06800000     -32.96160000     -72.78510000
H      -47.60150000     -30.18320000     -71.37710000
C      -45.52710000     -32.00670000     -73.67710000
C      -45.58190000     -34.28270000     -73.03890000
C      -44.75480000     -34.32180000     -74.13890000
S      -46.09280000     -30.42280000     -73.40010000
S      -44.44120000     -32.67620000     -74.82390000
H      -44.09040000     -35.06470000     -74.54990000
