40
Properties=species:S:1:pos:R:3 #=T CELL(abcABC):=T 1.889726e+02=T 90.00000=T Traj:=T positionsangstrom=T Step:=T 0=T Bead:=T pbc="F F F"
C      -46.79700000     -34.49190000     -69.64390000
C      -47.14880000     -34.77480000     -70.97480000
C      -47.44580000     -33.70760000     -71.77040000
C      -47.34410000     -32.35290000     -71.34690000
C      -46.86760000     -32.07020000     -70.02730000
C      -46.59040000     -33.19010000     -69.25370000
H      -46.75500000     -35.31660000     -68.93880000
H      -47.59680000     -33.88410000     -72.77610000
H      -46.99450000     -30.98950000     -69.69340000
H      -46.37840000     -32.99490000     -68.22240000
C      -47.90470000     -31.23850000     -72.20360000
H      -48.50850000     -30.54900000     -71.64840000
H      -48.52550000     -31.58400000     -73.03210000
C      -47.33930000     -36.21090000     -71.31470000
H      -46.73690000     -36.76160000     -70.54530000
H      -48.43000000     -36.57380000     -71.25720000
S      -46.44940000     -30.14130000     -72.74050000
S      -46.89600000     -36.68260000     -73.06830000
C      -45.39920000     -31.27710000     -73.65800000
H      -45.97290000     -32.19020000     -73.72850000
H      -45.29590000     -30.90020000     -74.66360000
C      -45.06870000     -36.41250000     -73.26800000
H      -44.76700000     -36.61550000     -74.33610000
H      -44.46540000     -37.14240000     -72.60280000
C      -44.45140000     -35.03480000     -72.99410000
H      -43.47950000     -35.01420000     -73.63260000
H      -45.01420000     -34.22790000     -73.46460000
C      -43.98910000     -31.47960000     -73.22950000
H      -43.38880000     -30.55570000     -73.38810000
H      -43.59460000     -32.22000000     -73.93030000
C      -43.75840000     -31.97140000     -71.77140000
C      -43.48620000     -30.94960000     -70.87490000
C      -43.80630000     -33.26490000     -71.15460000
H      -43.23250000     -29.93420000     -71.03330000
C      -43.44960000     -33.19040000     -69.77020000
C      -44.04140000     -34.68110000     -71.53800000
C      -43.67190000     -35.56160000     -70.54410000
S      -43.29220000     -31.53490000     -69.19520000
S      -43.22140000     -34.69610000     -69.01930000
H      -43.84330000     -36.62540000     -70.47330000
