40
Properties=species:S:1:pos:R:3 #=T CELL(abcABC):=T 1.889726e+02=T 90.00000=T Traj:=T positionsangstrom=T Step:=T 0=T Bead:=T pbc="F F F"
C      -46.72860000     -34.50920000     -69.59130000
C      -47.05660000     -34.73190000     -70.91040000
C      -47.41110000     -33.63720000     -71.71280000
C      -47.42420000     -32.30560000     -71.22830000
C      -47.05740000     -32.10740000     -69.87910000
C      -46.72600000     -33.19100000     -69.05160000
H      -46.39380000     -35.30160000     -69.02180000
H      -47.84800000     -33.78680000     -72.67820000
H      -46.94680000     -31.04110000     -69.53700000
H      -46.43790000     -32.99890000     -67.99210000
C      -47.80680000     -31.18370000     -72.21260000
H      -48.63800000     -30.56070000     -71.68420000
H      -48.24770000     -31.65380000     -73.09120000
C      -47.28720000     -36.22430000     -71.32220000
H      -46.78880000     -36.87350000     -70.65260000
H      -48.31480000     -36.43900000     -71.30720000
S      -46.48020000     -30.12150000     -72.87320000
S      -46.76380000     -36.63870000     -73.05960000
C      -45.46920000     -31.44780000     -73.71900000
H      -46.09900000     -32.36860000     -73.64830000
H      -45.35260000     -31.18070000     -74.78530000
C      -44.87770000     -36.50350000     -72.92880000
H      -44.40720000     -37.15310000     -73.67220000
H      -44.73270000     -37.01190000     -71.99000000
C      -44.35440000     -35.05720000     -73.01600000
H      -43.46600000     -35.09910000     -73.63770000
H      -45.03690000     -34.42660000     -73.53820000
C      -44.07220000     -31.62930000     -73.23100000
H      -43.59910000     -30.69470000     -73.43780000
H      -43.58400000     -32.36110000     -73.90510000
C      -43.88610000     -31.90510000     -71.79470000
C      -43.80090000     -30.93030000     -70.81650000
C      -43.73760000     -33.25210000     -71.21240000
H      -43.91490000     -29.91110000     -70.94530000
C      -43.39620000     -33.14430000     -69.85100000
C      -43.90770000     -34.63550000     -71.66180000
C      -43.60590000     -35.49570000     -70.65080000
S      -43.28750000     -31.52360000     -69.24260000
S      -43.29860000     -34.71870000     -69.08960000
H      -43.54310000     -36.51450000     -70.68570000
