40
Properties=species:S:1:pos:R:3 #=T CELL(abcABC):=T 1.889726e+02=T 90.00000=T Traj:=T positionsangstrom=T Step:=T 0=T Bead:=T pbc="F F F"
C      -46.75860000     -33.97780000     -69.40320000
C      -47.29310000     -34.47500000     -70.67650000
C      -47.84510000     -33.55210000     -71.57460000
C      -47.78190000     -32.18310000     -71.33890000
C      -47.22590000     -31.73660000     -70.16820000
C      -46.86310000     -32.60940000     -69.13480000
H      -46.31090000     -34.65580000     -68.72800000
H      -48.17520000     -34.02270000     -72.46410000
H      -47.16710000     -30.68950000     -69.94690000
H      -46.70400000     -32.13770000     -68.13580000
C      -48.06930000     -31.11040000     -72.38270000
H      -48.35120000     -30.17320000     -71.74910000
H      -48.83490000     -31.34430000     -73.05590000
C      -47.09410000     -35.94100000     -71.07800000
H      -46.35160000     -36.37320000     -70.37910000
H      -48.04790000     -36.45760000     -70.96970000
S      -46.55060000     -30.54490000     -73.38810000
S      -46.58100000     -36.30250000     -72.85760000
C      -45.61710000     -32.12070000     -73.69750000
H      -46.11350000     -32.95170000     -73.12130000
H      -45.84660000     -32.35530000     -74.73240000
C      -44.72650000     -36.61000000     -72.81150000
H      -44.53620000     -37.23410000     -73.72320000
H      -44.48900000     -37.17490000     -71.89570000
C      -43.72130000     -35.44290000     -72.80940000
H      -42.76430000     -35.93590000     -73.04660000
H      -44.02380000     -34.67490000     -73.51010000
C      -44.09500000     -32.02630000     -73.44020000
H      -43.62070000     -31.16280000     -73.85660000
H      -43.71740000     -32.86250000     -73.99920000
C      -43.79300000     -32.14780000     -71.91530000
C      -43.67370000     -31.03770000     -71.11130000
C      -43.75380000     -33.42880000     -71.17280000
H      -43.79320000     -29.97150000     -71.37000000
C      -43.52240000     -33.14790000     -69.81500000
C      -43.56720000     -34.82950000     -71.44330000
C      -43.19900000     -35.54380000     -70.33960000
S      -43.54050000     -31.48250000     -69.36210000
S      -43.20900000     -34.61680000     -68.87400000
H      -42.95200000     -36.62050000     -70.31880000
