40
Properties=species:S:1:pos:R:3 #=T CELL(abcABC):=T 1.889726e+02=T 90.00000=T Traj:=T positionsangstrom=T Step:=T 0=T Bead:=T pbc="F F F"
C      -46.73050000     -34.27710000     -69.44000000
C      -47.13620000     -34.60310000     -70.73190000
C      -47.72310000     -33.63570000     -71.56980000
C      -47.65860000     -32.29830000     -71.23220000
C      -47.18290000     -31.92120000     -69.93500000
C      -46.69470000     -32.90710000     -69.08290000
H      -46.42940000     -35.06670000     -68.71520000
H      -48.04740000     -34.01310000     -72.58180000
H      -47.35670000     -30.90620000     -69.73380000
H      -46.36090000     -32.54760000     -68.12530000
C      -48.06610000     -31.23560000     -72.31430000
H      -48.67670000     -30.44740000     -71.98320000
H      -48.69080000     -31.80060000     -73.11990000
C      -46.86380000     -35.99450000     -71.19270000
H      -46.00920000     -36.49970000     -70.79560000
H      -47.67860000     -36.70590000     -71.07720000
S      -46.50740000     -30.48540000     -73.10380000
S      -46.65860000     -36.16880000     -73.10070000
C      -45.58320000     -32.01430000     -73.75190000
H      -46.17700000     -32.87640000     -73.51590000
H      -45.70360000     -31.83500000     -74.85470000
C      -44.87300000     -36.56380000     -73.12960000
H      -44.66870000     -37.00130000     -74.13440000
H      -44.58450000     -37.37930000     -72.42940000
C      -43.94580000     -35.31330000     -72.89110000
H      -42.99260000     -35.50190000     -73.42050000
H      -44.27930000     -34.43660000     -73.51810000
C      -44.11850000     -31.98270000     -73.32700000
H      -43.64900000     -31.05830000     -73.58050000
H      -43.62680000     -32.71340000     -73.90650000
C      -43.87020000     -32.12500000     -71.86510000
C      -43.80530000     -31.04380000     -71.04640000
C      -43.70700000     -33.34330000     -71.12450000
H      -43.84430000     -30.00340000     -71.49170000
C      -43.47420000     -33.11420000     -69.76410000
C      -43.78620000     -34.71540000     -71.49410000
C      -43.53150000     -35.49760000     -70.39580000
S      -43.43500000     -31.40440000     -69.32090000
S      -43.20920000     -34.62070000     -68.88760000
H      -43.48590000     -36.58380000     -70.49580000
