40
Properties=species:S:1:pos:R:3 #=T CELL(abcABC):=T 1.889726e+02=T 90.00000=T Traj:=T positionsangstrom=T Step:=T 0=T Bead:=T pbc="F F F"
C      -46.57850000     -33.95460000     -69.56520000
C      -47.14140000     -34.37680000     -70.74770000
C      -47.63180000     -33.48400000     -71.67520000
C      -47.56080000     -32.10450000     -71.44760000
C      -47.12700000     -31.68180000     -70.19080000
C      -46.64290000     -32.58170000     -69.29320000
H      -46.12840000     -34.72600000     -68.86440000
H      -47.91980000     -33.75560000     -72.68150000
H      -47.01670000     -30.58460000     -70.01400000
H      -46.17120000     -32.28980000     -68.38640000
C      -47.96800000     -31.22640000     -72.59190000
H      -48.47360000     -30.37650000     -72.22700000
H      -48.57390000     -31.72140000     -73.36400000
C      -47.03510000     -35.85530000     -70.98510000
H      -46.21590000     -36.22490000     -70.35290000
H      -48.02230000     -36.30620000     -70.59260000
S      -46.54940000     -30.55050000     -73.52600000
S      -46.68530000     -36.24380000     -72.68680000
C      -45.53350000     -32.06910000     -73.87590000
H      -45.97970000     -32.92550000     -73.37750000
H      -45.53550000     -32.18610000     -74.98080000
C      -44.88500000     -36.77330000     -72.75950000
H      -44.75330000     -37.22430000     -73.77030000
H      -44.71110000     -37.57380000     -71.97100000
C      -43.88670000     -35.58350000     -72.64310000
H      -42.92710000     -35.88500000     -73.07880000
H      -44.27220000     -34.87640000     -73.41730000
C      -44.04340000     -32.10820000     -73.39580000
H      -43.52780000     -31.13740000     -73.65720000
H      -43.54460000     -32.96450000     -73.93460000
C      -43.87520000     -32.27280000     -71.90780000
C      -43.74870000     -31.13290000     -71.14440000
C      -43.82570000     -33.45160000     -71.05590000
H      -43.64100000     -30.12360000     -71.47430000
C      -43.51190000     -33.16550000     -69.71240000
C      -43.77410000     -34.92310000     -71.31420000
C      -43.49950000     -35.59970000     -70.16250000
S      -43.47670000     -31.41010000     -69.43770000
S      -43.32390000     -34.56040000     -68.73610000
H      -43.42490000     -36.65510000     -70.03230000
