40
Properties=species:S:1:pos:R:3 #=T CELL(abcABC):=T 1.889726e+02=T 90.00000=T Traj:=T positionsangstrom=T Step:=T 0=T Bead:=T pbc="F F F"
C      -47.01820000     -33.88960000     -69.41840000
C      -47.38780000     -34.37340000     -70.70390000
C      -47.66020000     -33.52670000     -71.77390000
C      -47.48680000     -32.13450000     -71.60660000
C      -47.27090000     -31.65230000     -70.27010000
C      -47.00450000     -32.50700000     -69.21300000
H      -46.84290000     -34.50810000     -68.51410000
H      -47.93220000     -33.88340000     -72.72690000
H      -47.37600000     -30.58610000     -70.06020000
H      -46.74060000     -32.14260000     -68.23040000
C      -47.60240000     -31.08840000     -72.70770000
H      -48.00010000     -30.19410000     -72.30390000
H      -48.38590000     -31.30110000     -73.48110000
C      -47.45570000     -35.88600000     -70.93380000
H      -46.85690000     -36.45380000     -70.30850000
H      -48.45810000     -36.27820000     -70.99700000
S      -45.95760000     -30.74640000     -73.64210000
S      -46.74470000     -36.45480000     -72.69930000
C      -45.10890000     -32.33980000     -74.03030000
H      -45.55960000     -33.01630000     -73.37270000
H      -45.31320000     -32.43790000     -75.10790000
C      -44.95640000     -36.76070000     -72.42190000
H      -44.77720000     -37.46170000     -73.17800000
H      -44.80710000     -37.26170000     -71.49510000
C      -44.05220000     -35.52350000     -72.57130000
H      -43.02900000     -35.88640000     -72.78870000
H      -44.31960000     -34.89030000     -73.45350000
C      -43.71600000     -32.29300000     -73.44990000
H      -43.17450000     -31.49510000     -73.88240000
H      -43.20770000     -33.17430000     -73.75720000
C      -43.75210000     -32.21970000     -71.94600000
C      -43.75220000     -31.01060000     -71.20670000
C      -43.74880000     -33.41050000     -71.05920000
H      -43.63930000     -30.06570000     -71.68320000
C      -43.64590000     -33.04980000     -69.67220000
C      -43.86200000     -34.82060000     -71.24540000
C      -43.79840000     -35.46720000     -70.04880000
S      -43.46170000     -31.31520000     -69.48080000
S      -43.44970000     -34.39410000     -68.66670000
H      -43.79240000     -36.52940000     -69.83790000
