40
Properties=species:S:1:pos:R:3 #=T CELL(abcABC):=T 1.889726e+02=T 90.00000=T Traj:=T positionsangstrom=T Step:=T 0=T Bead:=T pbc="F F F"
C      -47.33270000     -33.95360000     -69.55070000
C      -47.33500000     -34.35680000     -70.89550000
C      -47.30850000     -33.41090000     -71.94230000
C      -47.36060000     -32.06750000     -71.69580000
C      -47.21820000     -31.62160000     -70.33690000
C      -47.24140000     -32.60330000     -69.32410000
H      -47.29730000     -34.69150000     -68.81210000
H      -47.34240000     -33.77930000     -72.94610000
H      -47.17270000     -30.52150000     -70.05690000
H      -47.00190000     -32.30390000     -68.27330000
C      -47.56580000     -31.21460000     -72.92140000
H      -48.10900000     -30.29510000     -72.66220000
H      -48.02020000     -31.90790000     -73.68090000
C      -47.31080000     -35.82420000     -71.00720000
H      -46.70610000     -36.13440000     -70.13780000
H      -48.37460000     -36.18410000     -70.77740000
S      -45.95950000     -30.64200000     -73.59760000
S      -46.88800000     -36.53300000     -72.58220000
C      -45.09020000     -32.26630000     -74.02370000
H      -45.76790000     -33.14640000     -73.86140000
H      -44.93160000     -32.42950000     -75.11920000
C      -44.95220000     -36.89020000     -72.37450000
H      -44.70230000     -37.53720000     -73.25300000
H      -44.81690000     -37.42420000     -71.39560000
C      -44.11530000     -35.58460000     -72.37850000
H      -43.07430000     -35.73480000     -72.74650000
H      -44.49900000     -34.93860000     -73.18200000
C      -43.69370000     -32.43400000     -73.50730000
H      -43.04210000     -31.64010000     -73.93880000
H      -43.27930000     -33.42410000     -73.83180000
C      -43.52610000     -32.37550000     -71.94730000
C      -43.26900000     -31.11960000     -71.35720000
C      -43.73850000     -33.48730000     -71.00720000
H      -43.27930000     -30.16320000     -71.89250000
C      -43.68550000     -32.99420000     -69.71320000
C      -43.92500000     -34.88580000     -71.03700000
C      -43.87190000     -35.43350000     -69.79240000
S      -43.41110000     -31.23300000     -69.58980000
S      -43.66440000     -34.25260000     -68.48920000
H      -43.76170000     -36.46200000     -69.57720000
