40
Properties=species:S:1:pos:R:3 #=T CELL(abcABC):=T 1.889726e+02=T 90.00000=T Traj:=T positionsangstrom=T Step:=T 0=T Bead:=T pbc="F F F"
C      -47.58100000     -33.42120000     -70.04790000
C      -47.65660000     -34.15500000     -71.22070000
C      -47.47670000     -33.56350000     -72.51150000
C      -47.12800000     -32.23920000     -72.51790000
C      -46.97620000     -31.48430000     -71.35040000
C      -47.13930000     -32.10060000     -70.12340000
H      -47.57100000     -33.99250000     -69.08190000
H      -47.43780000     -34.19790000     -73.35990000
H      -46.62100000     -30.48180000     -71.50500000
H      -47.15050000     -31.44700000     -69.27050000
C      -46.94170000     -31.50830000     -73.84350000
H      -47.41550000     -30.50010000     -73.78170000
H      -47.40480000     -32.02130000     -74.69080000
C      -47.91350000     -35.60500000     -71.15110000
H      -47.81360000     -36.06880000     -70.20610000
H      -48.86160000     -35.79580000     -71.58610000
S      -45.14970000     -31.32470000     -74.26100000
S      -46.76500000     -36.71180000     -72.34000000
C      -44.43540000     -33.02710000     -73.97480000
H      -45.25440000     -33.43700000     -73.36390000
H      -44.24050000     -33.59340000     -74.82180000
C      -45.29620000     -37.04770000     -71.34150000
H      -44.82510000     -37.91980000     -71.73200000
H      -45.55860000     -37.20110000     -70.30170000
C      -44.17530000     -35.93440000     -71.38860000
H      -43.31350000     -36.46040000     -71.05500000
H      -43.95240000     -35.73210000     -72.47140000
C      -43.19070000     -32.85750000     -73.15300000
H      -42.48680000     -32.13900000     -73.61380000
H      -42.73430000     -33.83100000     -73.14360000
C      -43.37620000     -32.52010000     -71.66490000
C      -43.10560000     -31.20630000     -71.24030000
C      -43.77740000     -33.39340000     -70.59170000
H      -43.05090000     -30.41240000     -71.91380000
C      -43.78270000     -32.63640000     -69.39720000
C      -44.30990000     -34.80780000     -70.43360000
C      -44.73040000     -34.92560000     -69.09500000
S      -43.46400000     -30.96600000     -69.52030000
S      -44.39230000     -33.61820000     -68.10140000
H      -44.93250000     -35.83250000     -68.59450000
