40
Properties=species:S:1:pos:R:3 #=T CELL(abcABC):=T 1.889726e+02=T 90.00000=T Traj:=T positionsangstrom=T Step:=T 0=T Bead:=T pbc="F F F"
C      -47.40860000     -32.65040000     -73.02520000
C      -48.19260000     -32.42860000     -71.94380000
C      -47.86640000     -31.33640000     -71.11150000
C      -46.86060000     -30.43430000     -71.48320000
C      -46.23760000     -30.59760000     -72.77790000
C      -46.46550000     -31.76470000     -73.44380000
H      -47.41160000     -33.55130000     -73.60690000
H      -48.20270000     -31.23880000     -70.06270000
H      -45.42600000     -29.97850000     -73.14910000
H      -45.91710000     -32.04600000     -74.38590000
C      -46.42080000     -29.41170000     -70.54010000
H      -47.17440000     -29.05140000     -69.92340000
H      -45.95950000     -28.62170000     -71.11070000
C      -49.16720000     -33.54160000     -71.52650000
H      -50.20920000     -33.12010000     -71.48810000
H      -49.26060000     -34.14600000     -72.46800000
S      -45.09270000     -29.93610000     -69.23490000
S      -48.86310000     -34.73660000     -70.19590000
C      -43.81990000     -30.99870000     -70.04720000
H      -43.51960000     -30.75330000     -71.07320000
H      -43.02110000     -31.01660000     -69.35850000
C      -47.41450000     -35.68880000     -70.86360000
H      -47.34400000     -35.45970000     -71.92950000
H      -47.58670000     -36.74290000     -70.66900000
C      -46.08020000     -35.23670000     -70.23440000
H      -46.01980000     -34.12940000     -70.15370000
H      -45.98670000     -35.58040000     -69.19790000
C      -44.37780000     -32.44710000     -70.20490000
H      -45.41350000     -32.53330000     -70.68250000
H      -44.40010000     -32.82040000     -69.15080000
C      -43.45450000     -33.34150000     -71.10370000
C      -42.13650000     -33.01850000     -71.48890000
C      -43.77880000     -34.69100000     -71.35970000
H      -41.47110000     -32.22880000     -71.21970000
C      -42.69300000     -35.31670000     -72.06730000
C      -44.83100000     -35.60760000     -71.05510000
C      -44.64800000     -36.82070000     -71.61330000
S      -41.36720000     -34.28740000     -72.42960000
S      -43.09180000     -36.96320000     -72.46010000
H      -45.35390000     -37.59070000     -71.70440000
