40
Properties=species:S:1:pos:R:3 #=T CELL(abcABC):=T 1.889726e+02=T 90.00000=T Traj:=T positionsangstrom=T Step:=T 0=T Bead:=T pbc="F F F"
C      -47.36230000     -33.27480000     -70.06750000
C      -47.58300000     -34.09360000     -71.19000000
C      -47.49630000     -33.54330000     -72.51160000
C      -47.17100000     -32.22390000     -72.66050000
C      -46.98300000     -31.41800000     -71.50960000
C      -47.06440000     -31.92110000     -70.19670000
H      -47.46440000     -33.76610000     -69.13980000
H      -47.73970000     -34.11740000     -73.39260000
H      -46.61960000     -30.39830000     -71.69400000
H      -46.76720000     -31.32110000     -69.33090000
C      -46.84680000     -31.51440000     -73.98850000
H      -47.24680000     -30.48250000     -74.04510000
H      -47.28670000     -32.10890000     -74.76740000
C      -47.82950000     -35.57240000     -71.19660000
H      -47.69470000     -36.11360000     -70.24380000
H      -48.90830000     -35.75070000     -71.48960000
S      -45.03970000     -31.29940000     -74.25800000
S      -46.81000000     -36.58450000     -72.35290000
C      -44.43650000     -32.98990000     -74.12920000
H      -45.28790000     -33.70580000     -73.94130000
H      -44.06260000     -33.32280000     -75.12100000
C      -45.32250000     -36.94090000     -71.21960000
H      -44.91310000     -37.87720000     -71.67770000
H      -45.69980000     -37.19090000     -70.21350000
C      -44.26410000     -35.87440000     -71.27730000
H      -43.27630000     -36.37950000     -71.13930000
H      -44.16660000     -35.39320000     -72.29100000
C      -43.30840000     -33.16820000     -73.12330000
H      -42.46780000     -32.62220000     -73.50750000
H      -42.93790000     -34.24420000     -73.24450000
C      -43.46010000     -32.81720000     -71.63240000
C      -43.08500000     -31.48300000     -71.40020000
C      -43.97000000     -33.47390000     -70.48600000
H      -42.62270000     -30.72900000     -72.05330000
C      -44.10580000     -32.57970000     -69.44110000
C      -44.31630000     -34.89250000     -70.17820000
C      -44.56230000     -35.10570000     -68.81860000
S      -43.38170000     -31.02960000     -69.69190000
S      -44.50010000     -33.52060000     -67.89270000
H      -44.64090000     -36.07240000     -68.30400000
