40
Properties=species:S:1:pos:R:3 #=T CELL(abcABC):=T 1.889726e+02=T 90.00000=T Traj:=T positionsangstrom=T Step:=T 0=T Bead:=T pbc="F F F"
C      -46.52340000     -30.31000000     -70.70630000
C      -47.47940000     -31.21010000     -70.19850000
C      -48.20560000     -32.03540000     -71.07870000
C      -48.09760000     -31.85460000     -72.44970000
C      -47.23500000     -30.93920000     -72.93390000
C      -46.49180000     -30.14250000     -72.08750000
H      -45.90760000     -29.67010000     -70.15110000
H      -48.79900000     -32.79850000     -70.76940000
H      -47.12100000     -30.72140000     -74.02900000
H      -45.93100000     -29.39370000     -72.49580000
C      -48.91670000     -32.72000000     -73.37310000
H      -48.56600000     -32.60380000     -74.39780000
H      -49.97150000     -32.50100000     -73.47380000
C      -47.57750000     -31.45330000     -68.74500000
H      -47.15810000     -30.55570000     -68.21470000
H      -48.65550000     -31.64790000     -68.36940000
S      -48.62090000     -34.47020000     -72.92540000
S      -46.71780000     -32.96540000     -68.13180000
C      -46.77510000     -34.58950000     -73.21760000
H      -46.66060000     -35.28670000     -74.06920000
H      -46.64920000     -33.69620000     -73.71610000
C      -45.03370000     -33.00900000     -68.97300000
H      -44.39600000     -32.36970000     -68.34680000
H      -45.12540000     -32.61030000     -69.92410000
C      -44.52690000     -34.45380000     -69.00380000
H      -44.17980000     -34.85450000     -68.06230000
H      -45.30460000     -35.25450000     -69.30540000
C      -45.86690000     -34.73250000     -72.03450000
H      -45.94560000     -35.79410000     -71.73930000
H      -46.27440000     -34.12350000     -71.22790000
C      -44.35220000     -34.47220000     -72.37530000
C      -43.94520000     -34.30110000     -73.66770000
C      -43.35860000     -34.48350000     -71.35670000
H      -44.51390000     -34.07770000     -74.51950000
C      -42.03630000     -34.43700000     -71.88140000
C      -43.34940000     -34.47090000     -69.89750000
C      -42.11410000     -34.47230000     -69.32250000
S      -42.10360000     -34.31860000     -73.61220000
S      -40.85660000     -34.58360000     -70.62840000
H      -41.82740000     -34.31090000     -68.26570000
