40
Properties=species:S:1:pos:R:3 #=T CELL(abcABC):=T 1.889726e+02=T 90.00000=T Traj:=T positionsangstrom=T Step:=T 0=T Bead:=T pbc="F F F"
C      -47.45510000     -32.02780000     -70.34720000
C      -47.65700000     -33.22220000     -71.02670000
C      -47.34580000     -33.25110000     -72.33660000
C      -46.77580000     -32.12820000     -72.96940000
C      -46.65830000     -30.88080000     -72.29270000
C      -47.09400000     -30.82790000     -70.93890000
H      -47.76080000     -32.01340000     -69.29150000
H      -47.51990000     -34.13180000     -72.93770000
H      -46.17000000     -30.04310000     -72.72440000
H      -47.07140000     -29.84830000     -70.40910000
C      -46.29370000     -32.15230000     -74.46160000
H      -46.56550000     -31.28610000     -75.01330000
H      -46.80260000     -32.99380000     -74.93100000
C      -48.14220000     -34.48990000     -70.19090000
H      -47.68080000     -34.64790000     -69.23120000
H      -49.23160000     -34.46730000     -69.99130000
S      -44.49460000     -32.40100000     -74.61680000
S      -47.97590000     -36.07430000     -71.01100000
C      -44.35330000     -34.12650000     -74.08750000
H      -45.27690000     -34.49550000     -73.59770000
H      -44.21390000     -34.69400000     -74.97200000
C      -46.36500000     -36.74590000     -70.36850000
H      -46.07110000     -37.77570000     -70.75720000
H      -46.37110000     -36.83910000     -69.28180000
C      -45.14990000     -35.95420000     -70.83250000
H      -44.32290000     -36.67910000     -70.82180000
H      -45.21830000     -35.80820000     -71.85830000
C      -43.15120000     -34.28880000     -73.06820000
H      -42.13040000     -34.04430000     -73.51340000
H      -43.19020000     -35.29400000     -72.69980000
C      -43.22800000     -33.40860000     -71.83840000
C      -42.59860000     -32.16450000     -71.82370000
C      -43.96710000     -33.65260000     -70.61630000
H      -42.02830000     -31.72020000     -72.60990000
C      -43.78730000     -32.62260000     -69.69060000
C      -44.73280000     -34.76530000     -70.06670000
C      -44.93590000     -34.61410000     -68.75490000
S      -42.72950000     -31.39220000     -70.30530000
S      -44.23600000     -33.13350000     -68.09650000
H      -45.33370000     -35.41290000     -68.07770000
