40
Properties=species:S:1:pos:R:3 #=T CELL(abcABC):=T 1.889726e+02=T 90.00000=T Traj:=T positionsangstrom=T Step:=T 0=T Bead:=T pbc="F F F"
C      -43.98320000     -31.52430000     -70.90400000
C      -44.69050000     -31.72980000     -69.71100000
C      -46.11730000     -31.55370000     -69.74580000
C      -46.78990000     -31.44550000     -70.96420000
C      -46.08740000     -31.48010000     -72.19180000
C      -44.68480000     -31.47980000     -72.14340000
H      -42.89650000     -31.51390000     -70.92720000
H      -46.63560000     -31.64390000     -68.85300000
H      -46.54430000     -31.32930000     -73.15700000
H      -44.10930000     -31.27070000     -73.01320000
C      -48.27670000     -31.28280000     -71.00310000
H      -48.51540000     -30.33490000     -71.43310000
H      -48.76780000     -31.32010000     -70.04430000
C      -44.08260000     -31.80700000     -68.39280000
H      -43.89300000     -30.80500000     -67.97110000
H      -44.84580000     -32.36860000     -67.77750000
S      -49.17460000     -32.52320000     -72.00150000
S      -42.49570000     -32.74730000     -68.37050000
C      -48.83090000     -34.09480000     -71.11180000
H      -49.34280000     -33.94110000     -70.13320000
H      -49.34350000     -34.97730000     -71.56860000
C      -43.06080000     -34.57030000     -68.47380000
H      -43.38670000     -34.84790000     -67.47380000
H      -42.08930000     -35.09140000     -68.58790000
C      -44.21150000     -34.96530000     -69.43030000
H      -44.41930000     -35.94610000     -69.07570000
H      -45.02930000     -34.31140000     -69.09370000
C      -47.32580000     -34.57600000     -70.78800000
H      -47.26490000     -35.57380000     -70.28130000
H      -46.95080000     -33.98280000     -69.93040000
C      -46.48490000     -34.53920000     -71.97430000
C      -46.92460000     -34.41400000     -73.32700000
C      -45.02570000     -34.67650000     -71.92030000
H      -47.96340000     -34.14720000     -73.46820000
C      -44.49520000     -34.59370000     -73.19140000
C      -44.00610000     -34.84570000     -70.91170000
C      -42.79150000     -34.94280000     -71.42870000
S      -45.61810000     -34.34800000     -74.46250000
S      -42.80180000     -34.86160000     -73.14090000
H      -41.85190000     -35.12030000     -70.90150000
