40
Properties=species:S:1:pos:R:3 #=T CELL(abcABC):=T 1.889726e+02=T 90.00000=T Traj:=T positionsangstrom=T Step:=T 0=T Bead:=T pbc="F F F"
C      -47.28850000     -32.18910000     -70.28270000
C      -47.55780000     -33.32590000     -71.01240000
C      -47.37420000     -33.20250000     -72.39970000
C      -46.84880000     -32.10870000     -73.03590000
C      -46.48640000     -30.96560000     -72.27440000
C      -46.84990000     -31.00700000     -70.90590000
H      -47.32220000     -32.17350000     -69.17960000
H      -47.60360000     -34.08330000     -73.00230000
H      -46.08190000     -30.08110000     -72.70530000
H      -46.64750000     -30.11560000     -70.30260000
C      -46.46430000     -32.22810000     -74.44040000
H      -46.63750000     -31.31570000     -74.96440000
H      -46.97790000     -33.13120000     -74.89100000
C      -48.12160000     -34.50560000     -70.24060000
H      -47.60060000     -34.58990000     -69.24770000
H      -49.21720000     -34.37410000     -70.12620000
S      -44.64230000     -32.42910000     -74.55690000
S      -47.81960000     -36.11610000     -71.17650000
C      -44.35740000     -34.10780000     -73.94430000
H      -45.20120000     -34.67570000     -73.56530000
H      -44.05770000     -34.67100000     -74.85220000
C      -46.21110000     -36.76640000     -70.66320000
H      -46.10320000     -37.80890000     -70.98340000
H      -46.36590000     -36.88910000     -69.63040000
C      -44.92520000     -35.94250000     -70.98150000
H      -44.01430000     -36.64510000     -70.87360000
H      -45.01380000     -35.69250000     -72.05140000
C      -43.06800000     -34.09210000     -73.03030000
H      -42.33670000     -33.63340000     -73.66050000
H      -42.85510000     -35.18410000     -72.87530000
C      -43.20950000     -33.25380000     -71.78990000
C      -42.53570000     -32.00520000     -71.68840000
C      -43.82140000     -33.64340000     -70.57780000
H      -42.09840000     -31.39330000     -72.44790000
C      -43.81860000     -32.66090000     -69.61200000
C      -44.58210000     -34.78440000     -70.13400000
C      -45.01030000     -34.66340000     -68.85850000
S      -42.88280000     -31.23880000     -70.10470000
S      -44.56170000     -33.18270000     -68.10560000
H      -45.68540000     -35.28750000     -68.18120000
