40
Properties=species:S:1:pos:R:3 #=T CELL(abcABC):=T 1.889726e+02=T 90.00000=T Traj:=T positionsangstrom=T Step:=T 0=T Bead:=T pbc="F F F"
C      -47.81960000     -31.95000000     -70.18240000
C      -47.92070000     -33.14200000     -70.89330000
C      -47.26490000     -33.14780000     -72.15900000
C      -46.65030000     -32.02290000     -72.78210000
C      -46.54180000     -30.83920000     -71.96130000
C      -47.04860000     -30.83250000     -70.63580000
H      -48.19940000     -31.80350000     -69.17830000
H      -47.20830000     -34.09020000     -72.73820000
H      -45.87950000     -30.00410000     -72.37770000
H      -46.78190000     -29.94510000     -70.03570000
C      -46.21540000     -32.18870000     -74.20610000
H      -46.46890000     -31.27590000     -74.68440000
H      -46.82820000     -32.95060000     -74.62500000
C      -48.55630000     -34.42650000     -70.28020000
H      -48.40890000     -34.37920000     -69.15050000
H      -49.61280000     -34.44440000     -70.56220000
S      -44.50800000     -32.62050000     -74.66360000
S      -48.04160000     -36.03640000     -70.93980000
C      -44.42000000     -34.41990000     -74.17010000
H      -45.35610000     -34.68400000     -73.81920000
H      -44.29030000     -35.04320000     -75.06800000
C      -46.58560000     -36.45160000     -69.99630000
H      -46.58260000     -37.52000000     -69.93540000
H      -46.51470000     -36.08070000     -68.97840000
C      -45.23990000     -35.97140000     -70.56610000
H      -44.33560000     -36.58810000     -70.41430000
H      -45.45790000     -35.81190000     -71.64660000
C      -43.25070000     -34.65520000     -73.22670000
H      -42.36600000     -34.65620000     -73.76420000
H      -43.40080000     -35.62560000     -72.83640000
C      -43.23470000     -33.63790000     -72.05820000
C      -42.46130000     -32.52570000     -72.12710000
C      -43.86970000     -33.73550000     -70.69500000
H      -41.87370000     -32.20660000     -73.04630000
C      -43.49770000     -32.66290000     -69.87170000
C      -44.77330000     -34.56640000     -69.97570000
C      -44.88430000     -34.30130000     -68.68250000
S      -42.49170000     -31.51160000     -70.71400000
S      -44.12760000     -32.78250000     -68.23680000
H      -45.40920000     -34.83710000     -67.96710000
