40
Properties=species:S:1:pos:R:3 #=T CELL(abcABC):=T 1.889726e+02=T 90.00000=T Traj:=T positionsangstrom=T Step:=T 0=T Bead:=T pbc="F F F"
C      -44.95740000     -29.11400000     -72.66140000
C      -44.72080000     -30.31890000     -73.29740000
C      -43.68440000     -31.12890000     -72.82380000
C      -43.05390000     -30.78970000     -71.59690000
C      -43.38440000     -29.58120000     -70.88920000
C      -44.31530000     -28.71960000     -71.44370000
H      -45.76920000     -28.56600000     -73.18040000
H      -43.63920000     -32.16290000     -73.23100000
H      -42.79610000     -29.46430000     -69.98840000
H      -44.49210000     -27.71900000     -71.00410000
C      -41.97520000     -31.70510000     -71.02920000
H      -41.06020000     -31.07700000     -70.94740000
H      -41.69660000     -32.48050000     -71.71310000
C      -45.32830000     -30.59090000     -74.64140000
H      -46.04770000     -29.88500000     -74.89860000
H      -44.48400000     -30.55530000     -75.36400000
S      -42.37030000     -32.27090000     -69.32630000
S      -45.90020000     -32.32340000     -74.90480000
C      -43.92760000     -33.09170000     -69.64220000
H      -44.53210000     -33.10400000     -68.73030000
H      -44.42230000     -32.39330000     -70.28030000
C      -46.91960000     -33.05750000     -73.48610000
H      -47.71020000     -33.57060000     -74.02110000
H      -47.34320000     -32.26410000     -72.84890000
C      -46.01830000     -34.06030000     -72.78040000
H      -45.41720000     -34.76650000     -73.38720000
H      -45.24880000     -33.48700000     -72.14760000
C      -43.81400000     -34.55010000     -70.19250000
H      -42.98400000     -35.14140000     -69.81370000
H      -43.77610000     -34.38310000     -71.29610000
C      -45.04520000     -35.38490000     -69.79250000
C      -44.93820000     -36.28540000     -68.77010000
C      -46.31310000     -35.33460000     -70.48780000
H      -44.07640000     -36.59170000     -68.10920000
C      -47.24180000     -36.20460000     -69.80930000
C      -46.77300000     -34.95720000     -71.81420000
C      -48.02640000     -35.48120000     -72.11280000
S      -46.56870000     -37.00600000     -68.41890000
S      -48.65700000     -36.43220000     -70.75360000
H      -48.56780000     -35.20050000     -73.08820000
