40
Properties=species:S:1:pos:R:3 #=T CELL(abcABC):=T 1.889726e+02=T 90.00000=T Traj:=T positionsangstrom=T Step:=T 0=T Bead:=T pbc="F F F"
C      -44.58840000     -31.03370000     -70.40860000
C      -44.80250000     -31.97450000     -69.41190000
C      -46.12040000     -32.33010000     -69.06570000
C      -47.21640000     -31.85510000     -69.83380000
C      -46.96020000     -30.95530000     -70.85980000
C      -45.69890000     -30.46790000     -71.03480000
H      -43.62690000     -30.84650000     -70.82290000
H      -46.34270000     -32.94200000     -68.18400000
H      -47.85820000     -30.57650000     -71.41230000
H      -45.50250000     -29.80400000     -71.91020000
C      -48.61470000     -32.36920000     -69.62740000
H      -49.28800000     -31.52530000     -69.46300000
H      -48.66550000     -32.90280000     -68.67060000
C      -43.65890000     -32.51670000     -68.51880000
H      -43.26380000     -31.58010000     -68.07150000
H      -44.14340000     -33.07430000     -67.70450000
S      -49.20940000     -33.21810000     -71.13510000
S      -42.15330000     -33.16330000     -69.33650000
C      -48.48980000     -34.95740000     -70.91410000
H      -48.89770000     -35.29830000     -69.91250000
H      -48.77290000     -35.65630000     -71.74770000
C      -42.54220000     -34.96160000     -69.42050000
H      -42.67220000     -35.26900000     -68.35170000
H      -41.69650000     -35.52030000     -69.73990000
C      -43.77970000     -35.40250000     -70.20760000
H      -43.77780000     -36.52160000     -70.14880000
H      -44.70260000     -35.09310000     -69.67560000
C      -46.90490000     -34.86240000     -70.79530000
H      -46.54620000     -35.86550000     -70.55330000
H      -46.64400000     -34.23880000     -69.90850000
C      -46.24670000     -34.42230000     -72.14690000
C      -46.95220000     -34.01290000     -73.24530000
C      -44.84730000     -34.26400000     -72.32540000
H      -48.00990000     -34.15070000     -73.38730000
C      -44.51100000     -33.91280000     -73.58280000
C      -43.67610000     -34.84170000     -71.60680000
C      -42.53980000     -34.72430000     -72.33770000
S      -45.90420000     -33.53520000     -74.57950000
S      -42.77740000     -33.82820000     -73.83520000
H      -41.55590000     -35.04620000     -72.09690000
