40
Properties=species:S:1:pos:R:3 #=T CELL(abcABC):=T 1.889726e+02=T 90.00000=T Traj:=T positionsangstrom=T Step:=T 0=T Bead:=T pbc="F F F"
C      -46.57980000     -31.12410000     -70.58870000
C      -47.41290000     -32.19940000     -70.80230000
C      -47.48600000     -32.76040000     -72.06360000
C      -46.65210000     -32.36310000     -73.15330000
C      -45.73270000     -31.33240000     -72.97450000
C      -45.66180000     -30.74890000     -71.65720000
H      -46.52130000     -30.68880000     -69.54870000
H      -48.16930000     -33.59930000     -72.26970000
H      -44.98010000     -30.95760000     -73.74120000
H      -45.04730000     -29.81740000     -71.47450000
C      -46.85660000     -33.04880000     -74.50040000
H      -46.84800000     -32.41730000     -75.43470000
H      -47.71870000     -33.63680000     -74.57130000
C      -48.24330000     -32.78750000     -69.57730000
H      -47.74500000     -32.47480000     -68.69540000
H      -49.21450000     -32.31290000     -69.64430000
S      -45.40770000     -34.22160000     -74.56210000
S      -48.43870000     -34.54830000     -69.59960000
C      -45.64120000     -35.35270000     -73.13800000
H      -46.40270000     -35.02860000     -72.35150000
H      -46.15390000     -36.22790000     -73.51360000
C      -46.92990000     -35.19030000     -68.71920000
H      -47.21950000     -36.12540000     -68.27740000
H      -46.74530000     -34.55070000     -67.82120000
C      -45.63940000     -35.41710000     -69.53450000
H      -45.01750000     -36.11300000     -68.95410000
H      -46.02760000     -35.78990000     -70.54140000
C      -44.23310000     -35.79530000     -72.66730000
H      -43.62570000     -36.15570000     -73.47850000
H      -44.17970000     -36.63700000     -71.97820000
C      -43.59660000     -34.57610000     -72.02400000
C      -42.65170000     -33.85540000     -72.68710000
C      -43.90910000     -33.90850000     -70.75810000
H      -42.23040000     -34.05160000     -73.65330000
C      -43.08660000     -32.76560000     -70.54900000
C      -44.77520000     -34.14310000     -69.70600000
C      -44.66830000     -33.21190000     -68.62840000
S      -42.06590000     -32.42390000     -71.90810000
S      -43.31900000     -32.15610000     -68.99100000
H      -44.84720000     -33.36030000     -67.58940000
