40
Properties=species:S:1:pos:R:3 #=T CELL(abcABC):=T 1.889726e+02=T 90.00000=T Traj:=T positionsangstrom=T Step:=T 0=T Bead:=T pbc="F F F"
C      -46.52020000     -31.04610000     -70.66540000
C      -47.42660000     -32.12850000     -70.87560000
C      -47.42240000     -32.76650000     -72.12350000
C      -46.63230000     -32.36650000     -73.25290000
C      -45.77940000     -31.21220000     -73.03650000
C      -45.71590000     -30.62450000     -71.72930000
H      -46.53640000     -30.39330000     -69.74700000
H      -48.13340000     -33.54800000     -72.34200000
H      -45.13580000     -30.91200000     -73.91460000
H      -45.10970000     -29.70450000     -71.75500000
C      -46.73110000     -33.09530000     -74.58560000
H      -46.43990000     -32.23350000     -75.25000000
H      -47.76170000     -33.38250000     -74.89450000
C      -48.28720000     -32.54370000     -69.68190000
H      -47.80380000     -32.20040000     -68.71090000
H      -49.35350000     -32.22470000     -69.52570000
S      -45.62500000     -34.58820000     -74.80220000
S      -48.39390000     -34.44220000     -69.61770000
C      -45.79110000     -35.44030000     -73.21220000
H      -46.44850000     -34.84950000     -72.61620000
H      -46.20220000     -36.40810000     -73.53660000
C      -46.99470000     -35.06750000     -68.66580000
H      -47.37500000     -36.02900000     -68.41410000
H      -46.82850000     -34.41630000     -67.79170000
C      -45.70650000     -35.32800000     -69.45340000
H      -45.23980000     -36.24770000     -69.00130000
H      -45.92980000     -35.55540000     -70.47450000
C      -44.33860000     -35.66460000     -72.47600000
H      -43.74630000     -36.20080000     -73.22370000
H      -44.51930000     -36.39460000     -71.65730000
C      -43.69730000     -34.46240000     -71.94180000
C      -42.78730000     -33.81120000     -72.68210000
C      -43.86400000     -33.89430000     -70.62840000
H      -42.45500000     -34.10300000     -73.63320000
C      -42.96640000     -32.85290000     -70.43580000
C      -44.69320000     -34.18370000     -69.50930000
C      -44.42850000     -33.36020000     -68.46840000
S      -41.92840000     -32.51850000     -71.82630000
S      -43.23630000     -32.12550000     -68.91510000
H      -44.87960000     -33.54240000     -67.48670000
