40
Properties=species:S:1:pos:R:3 #=T CELL(abcABC):=T 1.889726e+02=T 90.00000=T Traj:=T positionsangstrom=T Step:=T 0=T Bead:=T pbc="F F F"
C      -44.31560000     -31.04420000     -70.39500000
C      -44.30550000     -31.87020000     -69.21790000
C      -45.60080000     -32.30900000     -68.82690000
C      -46.77440000     -32.13820000     -69.64470000
C      -46.65250000     -31.37400000     -70.80440000
C      -45.42840000     -30.79040000     -71.21160000
H      -43.44510000     -30.53030000     -70.69350000
H      -45.70050000     -33.15810000     -68.07770000
H      -47.45800000     -31.33180000     -71.49360000
H      -45.22480000     -30.20670000     -72.09580000
C      -48.06870000     -32.72400000     -69.16540000
H      -48.72540000     -31.87960000     -68.87310000
H      -47.91860000     -33.37310000     -68.28160000
C      -43.07620000     -32.24230000     -68.53420000
H      -42.67620000     -31.36150000     -68.04290000
H      -43.13900000     -32.97580000     -67.77910000
S      -49.11970000     -33.57890000     -70.44720000
S      -41.74790000     -32.93360000     -69.63630000
C      -48.51630000     -35.33030000     -70.64600000
H      -48.78420000     -35.76160000     -69.74230000
H      -49.08450000     -35.85590000     -71.43130000
C      -42.21310000     -34.69070000     -69.87280000
H      -42.18490000     -35.04560000     -68.80200000
H      -41.39390000     -35.19450000     -70.40020000
C      -43.57940000     -34.90760000     -70.43880000
H      -43.81000000     -36.02860000     -70.33590000
H      -44.20620000     -34.51620000     -69.66420000
C      -47.03710000     -35.40960000     -70.90670000
H      -46.75070000     -36.43990000     -70.90960000
H      -46.49340000     -34.94710000     -70.03180000
C      -46.51290000     -34.72910000     -72.15190000
C      -47.30390000     -34.64780000     -73.25340000
C      -45.18930000     -34.25900000     -72.41990000
H      -48.34930000     -34.92340000     -73.33360000
C      -45.07220000     -33.74920000     -73.70490000
C      -43.87710000     -34.24700000     -71.76120000
C      -42.90200000     -33.67020000     -72.50600000
S      -46.54400000     -33.88330000     -74.61410000
S      -43.42850000     -33.21200000     -74.12640000
H      -41.86050000     -33.54620000     -72.34280000
