40
Properties=species:S:1:pos:R:3 #=T CELL(abcABC):=T 1.889726e+02=T 90.00000=T Traj:=T positionsangstrom=T Step:=T 0=T Bead:=T pbc="F F F"
C      -44.35910000     -31.11070000     -70.54940000
C      -44.48500000     -31.89120000     -69.39930000
C      -45.70020000     -32.37000000     -68.96970000
C      -46.82250000     -32.08780000     -69.68150000
C      -46.72830000     -31.39690000     -70.87650000
C      -45.52060000     -30.84240000     -71.24330000
H      -43.43260000     -30.79480000     -70.92630000
H      -45.66020000     -32.72340000     -67.97640000
H      -47.63970000     -31.10860000     -71.37940000
H      -45.54320000     -30.24440000     -72.20770000
C      -48.12280000     -32.66310000     -69.10090000
H      -48.78440000     -31.96920000     -68.68190000
H      -47.77190000     -33.23470000     -68.18690000
C      -43.25290000     -32.19420000     -68.49940000
H      -42.87900000     -31.21990000     -68.06620000
H      -43.61430000     -32.71550000     -67.57660000
S      -49.11180000     -33.60200000     -70.30010000
S      -41.85840000     -32.94720000     -69.47140000
C      -48.36400000     -35.18330000     -70.60410000
H      -48.47680000     -35.81710000     -69.66440000
H      -49.00400000     -35.59910000     -71.42220000
C      -42.30590000     -34.71700000     -69.64380000
H      -42.35810000     -35.20500000     -68.69390000
H      -41.43680000     -35.14440000     -70.15210000
C      -43.65840000     -34.94350000     -70.34660000
H      -43.86840000     -35.99900000     -70.34380000
H      -44.40840000     -34.51070000     -69.62220000
C      -46.91040000     -35.32420000     -70.98000000
H      -46.70520000     -36.42990000     -71.04970000
H      -46.29350000     -34.94130000     -70.17370000
C      -46.50390000     -34.72700000     -72.28450000
C      -47.29610000     -34.42800000     -73.31180000
C      -45.11080000     -34.43570000     -72.63310000
H      -48.33840000     -34.56030000     -73.36350000
C      -44.93490000     -33.79760000     -73.85380000
C      -43.83570000     -34.47210000     -71.81870000
C      -42.78160000     -34.03150000     -72.50620000
S      -46.46750000     -33.61690000     -74.64390000
S      -43.27940000     -33.28420000     -74.10980000
H      -41.71160000     -34.10570000     -72.33050000
