40
Properties=species:S:1:pos:R:3 #=T CELL(abcABC):=T 1.889726e+02=T 90.00000=T Traj:=T positionsangstrom=T Step:=T 0=T Bead:=T pbc="F F F"
C      -44.25990000     -30.95980000     -70.33730000
C      -44.24540000     -31.86630000     -69.29520000
C      -45.41630000     -32.54940000     -68.99420000
C      -46.59010000     -32.27030000     -69.68200000
C      -46.56410000     -31.43020000     -70.76460000
C      -45.41340000     -30.79660000     -71.09190000
H      -43.30440000     -30.57630000     -70.77270000
H      -45.51550000     -33.13050000     -68.04800000
H      -47.53390000     -31.30170000     -71.18610000
H      -45.37410000     -30.11670000     -71.89960000
C      -47.97310000     -32.81890000     -69.22900000
H      -48.44390000     -31.97380000     -68.67740000
H      -47.96310000     -33.62650000     -68.53440000
C      -43.01090000     -32.11210000     -68.51540000
H      -42.67270000     -31.08850000     -68.16690000
H      -43.10050000     -32.87520000     -67.68580000
S      -49.03510000     -33.44600000     -70.61710000
S      -41.66850000     -32.86440000     -69.50750000
C      -48.43300000     -35.24310000     -70.37190000
H      -48.62430000     -35.55640000     -69.27470000
H      -49.02340000     -36.05370000     -70.87680000
C      -42.25280000     -34.60030000     -69.82740000
H      -42.25320000     -35.22200000     -68.93730000
H      -41.53470000     -35.06200000     -70.48900000
C      -43.60680000     -34.88920000     -70.43460000
H      -43.67000000     -35.98520000     -70.46190000
H      -44.43940000     -34.55000000     -69.90300000
C      -46.95460000     -35.34250000     -70.75630000
H      -46.55590000     -36.37780000     -70.54450000
H      -46.30720000     -34.70550000     -70.14880000
C      -46.57980000     -34.88070000     -72.13840000
C      -47.44480000     -34.79080000     -73.24130000
C      -45.25020000     -34.35100000     -72.45250000
H      -48.51390000     -35.07240000     -73.15770000
C      -45.17680000     -33.84830000     -73.76780000
C      -43.88250000     -34.31930000     -71.86560000
C      -42.98640000     -33.60850000     -72.65840000
S      -46.62810000     -34.01120000     -74.59020000
S      -43.66490000     -33.09780000     -74.16020000
H      -41.97570000     -33.30580000     -72.39620000
