40
Properties=species:S:1:pos:R:3 #=T CELL(abcABC):=T 1.889726e+02=T 90.00000=T Traj:=T positionsangstrom=T Step:=T 0=T Bead:=T pbc="F F F"
C      -49.12890000     -34.82270000     -71.81670000
C      -48.26520000     -35.17800000     -70.79200000
C      -47.11070000     -35.93900000     -71.11340000
C      -46.75940000     -36.19940000     -72.42460000
C      -47.60900000     -35.67660000     -73.41010000
C      -48.78450000     -35.05380000     -73.11750000
H      -50.10460000     -34.42870000     -71.63420000
H      -46.58040000     -36.35230000     -70.28030000
H      -47.40070000     -35.87230000     -74.42790000
H      -49.44010000     -34.70190000     -73.89860000
C      -45.48590000     -36.87900000     -72.80230000
H      -45.58440000     -37.79600000     -73.40680000
H      -44.91240000     -37.16350000     -71.85780000
C      -48.64980000     -34.83680000     -69.33640000
H      -49.75940000     -35.02630000     -69.18090000
H      -48.07530000     -35.37220000     -68.54100000
S      -44.33170000     -35.76500000     -73.61400000
S      -48.46060000     -33.05000000     -68.83360000
C      -43.16850000     -35.52410000     -72.22140000
H      -42.83040000     -36.49750000     -71.78060000
H      -42.31470000     -35.10740000     -72.80090000
C      -46.76570000     -32.46310000     -69.43580000
H      -46.00300000     -33.21240000     -69.08260000
H      -46.53370000     -31.47260000     -69.03140000
C      -46.40790000     -32.35760000     -71.00190000
H      -46.40830000     -33.32680000     -71.54210000
H      -47.17400000     -31.83940000     -71.49290000
C      -43.66540000     -34.60080000     -71.05540000
H      -43.50470000     -35.03120000     -70.09780000
H      -44.70800000     -34.54840000     -71.14400000
C      -43.10920000     -33.18220000     -71.13780000
C      -41.74410000     -32.99640000     -71.02400000
C      -43.78930000     -31.92680000     -71.19240000
H      -41.06450000     -33.80100000     -70.81000000
C      -42.87510000     -30.87260000     -71.16840000
C      -45.18270000     -31.46120000     -71.15560000
C      -45.21490000     -30.11510000     -70.90550000
S      -41.23430000     -31.31860000     -71.15570000
S      -43.72250000     -29.30390000     -70.98970000
H      -46.26200000     -29.59910000     -70.94360000
