40
Properties=species:S:1:pos:R:3 #=T CELL(abcABC):=T 1.889726e+02=T 90.00000=T Traj:=T positionsangstrom=T Step:=T 0=T Bead:=T pbc="F F F"
C      -44.34480000     -31.33700000     -70.89940000
C      -44.21090000     -31.89180000     -69.63850000
C      -45.42220000     -32.19230000     -68.92030000
C      -46.62270000     -31.97260000     -69.53260000
C      -46.69500000     -31.34510000     -70.78490000
C      -45.56870000     -31.01540000     -71.46440000
H      -43.44110000     -30.92000000     -71.40950000
H      -45.37830000     -32.83480000     -68.05450000
H      -47.69560000     -31.14550000     -71.18870000
H      -45.58430000     -30.54060000     -72.49200000
C      -47.92280000     -32.42170000     -68.89670000
H      -48.35000000     -31.54670000     -68.37120000
H      -47.80730000     -33.21930000     -68.18750000
C      -42.82390000     -32.07270000     -68.90540000
H      -42.26020000     -31.15770000     -68.87900000
H      -43.02360000     -32.39410000     -67.85520000
S      -49.11550000     -33.06150000     -70.09740000
S      -41.71770000     -33.14780000     -69.78010000
C      -48.57290000     -34.83450000     -70.35240000
H      -48.86370000     -35.50740000     -69.49620000
H      -49.33910000     -35.24720000     -71.16560000
C      -42.32030000     -34.92540000     -69.71510000
H      -42.18090000     -35.41210000     -68.74490000
H      -41.70160000     -35.42010000     -70.39870000
C      -43.74460000     -35.09560000     -70.25530000
H      -44.12570000     -36.09680000     -70.09590000
H      -44.44040000     -34.53260000     -69.55950000
C      -47.14990000     -35.09660000     -70.74620000
H      -46.95360000     -36.15360000     -70.89710000
H      -46.54530000     -34.81540000     -69.88320000
C      -46.63610000     -34.48260000     -72.07370000
C      -47.47300000     -34.19340000     -73.11740000
C      -45.20680000     -34.39930000     -72.41650000
H      -48.54200000     -34.15150000     -72.98760000
C      -45.01730000     -33.86270000     -73.68860000
C      -43.87740000     -34.58980000     -71.74070000
C      -42.84690000     -34.26230000     -72.59840000
S      -46.59470000     -33.72320000     -74.58700000
S      -43.37400000     -33.78270000     -74.26080000
H      -41.82220000     -34.25050000     -72.41250000
