40
Properties=species:S:1:pos:R:3 #=T CELL(abcABC):=T 1.889726e+02=T 90.00000=T Traj:=T positionsangstrom=T Step:=T 0=T Bead:=T pbc="F F F"
C      -44.29050000     -31.09440000     -70.99140000
C      -44.34210000     -31.72120000     -69.75430000
C      -45.55060000     -32.06380000     -69.17410000
C      -46.73950000     -31.89890000     -69.83190000
C      -46.71980000     -31.17900000     -71.07610000
C      -45.51180000     -30.75040000     -71.58760000
H      -43.24380000     -30.89700000     -71.39640000
H      -45.52750000     -32.60810000     -68.21330000
H      -47.58760000     -30.97550000     -71.66720000
H      -45.68190000     -30.00340000     -72.44600000
C      -48.11670000     -32.17510000     -69.23100000
H      -48.61250000     -31.26660000     -69.22760000
H      -47.93880000     -32.59410000     -68.19340000
C      -43.06180000     -32.11780000     -69.01010000
H      -42.61410000     -31.27260000     -68.50650000
H      -43.25090000     -32.84170000     -68.20800000
S      -49.14580000     -33.26950000     -70.33990000
S      -41.74190000     -32.90080000     -70.04520000
C      -48.52540000     -34.99360000     -70.14700000
H      -48.80690000     -35.29810000     -69.07010000
H      -49.08840000     -35.65880000     -70.76310000
C      -42.15530000     -34.72730000     -69.74660000
H      -41.93930000     -34.99180000     -68.68960000
H      -41.41820000     -35.24430000     -70.32120000
C      -43.53260000     -35.26360000     -70.22180000
H      -43.49750000     -36.37260000     -70.34670000
H      -44.28940000     -34.89570000     -69.53540000
C      -47.00840000     -35.25860000     -70.56560000
H      -47.03710000     -36.32460000     -70.63180000
H      -46.28460000     -34.94950000     -69.83040000
C      -46.56760000     -34.66890000     -71.85420000
C      -47.36990000     -33.99070000     -72.71300000
C      -45.15830000     -34.60030000     -72.19120000
H      -48.40300000     -33.86530000     -72.65640000
C      -45.05300000     -34.20580000     -73.54540000
C      -43.82460000     -34.86330000     -71.65150000
C      -42.80480000     -34.61120000     -72.55110000
S      -46.60070000     -33.53770000     -74.22450000
S      -43.39210000     -33.95160000     -74.07640000
H      -41.80170000     -34.75500000     -72.46280000
