40
Properties=species:S:1:pos:R:3 #=T CELL(abcABC):=T 1.889726e+02=T 90.00000=T Traj:=T positionsangstrom=T Step:=T 0=T Bead:=T pbc="F F F"
C      -48.94910000     -34.48420000     -71.86350000
C      -48.26270000     -34.99690000     -70.74850000
C      -47.22720000     -35.97840000     -70.95300000
C      -46.79240000     -36.33390000     -72.23290000
C      -47.44610000     -35.76750000     -73.32010000
C      -48.49170000     -34.84260000     -73.10210000
H      -49.66890000     -33.72660000     -71.73930000
H      -46.67470000     -36.31210000     -70.08710000
H      -47.19580000     -36.06710000     -74.41540000
H      -48.96460000     -34.45290000     -73.97760000
C      -45.60600000     -37.28200000     -72.38540000
H      -45.77420000     -38.19820000     -72.97010000
H      -45.09200000     -37.56600000     -71.48740000
C      -48.56320000     -34.52210000     -69.39280000
H      -49.62820000     -34.61100000     -69.11570000
H      -48.04480000     -35.11330000     -68.73770000
S      -44.45260000     -36.40920000     -73.66900000
S      -48.21560000     -32.75990000     -68.99440000
C      -43.51270000     -35.35670000     -72.56440000
H      -42.88160000     -35.91230000     -71.91250000
H      -42.77810000     -34.73900000     -73.15860000
C      -46.54410000     -32.48720000     -69.82660000
H      -46.16760000     -33.47740000     -70.18200000
H      -45.81460000     -32.05840000     -69.10370000
C      -46.55010000     -31.69000000     -71.07760000
H      -46.93660000     -32.24210000     -71.95920000
H      -47.26350000     -30.81690000     -71.14900000
C      -44.30550000     -34.38780000     -71.69160000
H      -44.76270000     -34.93210000     -70.85510000
H      -45.18350000     -33.93530000     -72.25890000
C      -43.46700000     -33.17100000     -71.16740000
C      -42.11330000     -33.27000000     -70.87610000
C      -43.88810000     -31.83590000     -71.12070000
H      -41.51570000     -34.15180000     -70.66560000
C      -42.81130000     -30.96470000     -70.90860000
C      -45.20760000     -31.09680000     -71.19920000
C      -44.97760000     -29.76840000     -71.30220000
S      -41.37190000     -31.78740000     -70.50580000
S      -43.29230000     -29.29940000     -71.09320000
H      -45.66200000     -28.83080000     -71.28210000
