40
Properties=species:S:1:pos:R:3 #=T CELL(abcABC):=T 1.889726e+02=T 90.00000=T Traj:=T positionsangstrom=T Step:=T 0=T Bead:=T pbc="F F F"
C      -44.30820000     -37.42530000     -72.13620000
C      -43.78600000     -36.18540000     -72.50180000
C      -44.62560000     -35.27370000     -73.26290000
C      -45.88100000     -35.66590000     -73.68450000
C      -46.20550000     -36.98830000     -73.51630000
C      -45.52350000     -37.84720000     -72.70350000
H      -43.71170000     -38.16540000     -71.47990000
H      -44.32140000     -34.29570000     -73.45640000
H      -47.08460000     -37.40540000     -73.97080000
H      -45.81140000     -38.85240000     -72.58740000
C      -46.77940000     -34.78160000     -74.52460000
H      -47.26030000     -35.43810000     -75.24910000
H      -46.19960000     -34.07160000     -75.06510000
C      -42.42150000     -35.73420000     -72.14100000
H      -41.90130000     -36.56320000     -71.75240000
H      -41.85710000     -35.31980000     -73.03160000
S      -48.11310000     -34.03310000     -73.56040000
S      -42.28330000     -34.42850000     -70.87310000
C      -47.19660000     -33.01080000     -72.39540000
H      -46.21790000     -33.38110000     -72.38600000
H      -47.19180000     -31.92890000     -72.81980000
C      -43.60010000     -34.94570000     -69.62720000
H      -43.11760000     -34.75480000     -68.61540000
H      -43.87800000     -36.01590000     -69.76130000
C      -44.89330000     -34.12650000     -69.83570000
H      -45.52350000     -34.41600000     -70.74860000
H      -45.60190000     -34.46180000     -69.00160000
C      -47.79160000     -32.89650000     -71.02390000
H      -47.78840000     -33.70050000     -70.32690000
H      -48.88130000     -32.74890000     -70.99420000
C      -47.09510000     -31.62020000     -70.47120000
C      -47.66200000     -30.36310000     -70.46460000
C      -45.70610000     -31.65140000     -70.07320000
H      -48.68810000     -30.15540000     -70.79310000
C      -45.26080000     -30.38980000     -69.75310000
C      -44.74340000     -32.68420000     -69.76250000
C      -43.56370000     -32.08240000     -69.26450000
S      -46.51910000     -29.13940000     -70.02030000
S      -43.67510000     -30.39240000     -69.09700000
H      -42.74230000     -32.67800000     -68.86780000
