40
Properties=species:S:1:pos:R:3 #=T CELL(abcABC):=T 1.889726e+02=T 90.00000=T Traj:=T positionsangstrom=T Step:=T 0=T Bead:=T pbc="F F F"
C      -45.27230000     -35.95850000     -74.02810000
C      -44.23380000     -35.03990000     -74.22820000
C      -43.15270000     -35.07700000     -73.24610000
C      -43.12630000     -36.07210000     -72.26750000
C      -44.23160000     -36.93820000     -72.05680000
C      -45.22150000     -36.88940000     -72.99140000
H      -46.13270000     -35.97640000     -74.69840000
H      -42.26300000     -34.42520000     -73.12920000
H      -44.28550000     -37.63940000     -71.21440000
H      -46.15670000     -37.49320000     -72.85930000
C      -42.09080000     -36.13650000     -71.16280000
H      -41.10950000     -36.42310000     -71.60520000
H      -42.42280000     -36.93100000     -70.39060000
C      -44.31160000     -34.01860000     -75.34780000
H      -43.32650000     -33.78700000     -75.77480000
H      -45.07170000     -34.33770000     -76.04130000
S      -41.81680000     -34.54520000     -70.31050000
S      -44.92960000     -32.35240000     -74.94170000
C      -43.36860000     -34.12160000     -69.35930000
H      -44.06410000     -34.97080000     -69.32170000
H      -43.13440000     -33.92910000     -68.33180000
C      -46.17920000     -32.58010000     -73.56700000
H      -45.85410000     -33.47750000     -73.03860000
H      -47.17380000     -32.61310000     -73.99550000
C      -46.06290000     -31.42210000     -72.57170000
H      -45.03600000     -31.38110000     -72.34920000
H      -46.30290000     -30.52720000     -73.14670000
C      -44.15450000     -32.89450000     -70.02410000
H      -44.30280000     -33.10850000     -71.05210000
H      -43.62020000     -31.97150000     -70.02370000
C      -45.47200000     -32.64390000     -69.34670000
C      -45.63390000     -32.76790000     -67.95220000
C      -46.60420000     -32.04640000     -69.95380000
H      -44.88760000     -33.18310000     -67.23650000
C      -47.66330000     -31.77870000     -69.01340000
C      -46.95350000     -31.51080000     -71.30310000
C      -48.22350000     -30.96030000     -71.32200000
S      -47.17370000     -32.27010000     -67.42720000
S      -49.01040000     -30.99380000     -69.72340000
H      -48.81500000     -30.58320000     -72.23440000
