40
Properties=species:S:1:pos:R:3 #=T CELL(abcABC):=T 1.889726e+02=T 90.00000=T Traj:=T positionsangstrom=T Step:=T 0=T Bead:=T pbc="F F F"
C      -46.33100000     -30.85930000     -71.41940000
C      -47.55520000     -31.56250000     -71.53360000
C      -47.58490000     -32.53070000     -72.50910000
C      -46.43270000     -32.82230000     -73.28840000
C      -45.30890000     -32.00910000     -73.25070000
C      -45.28550000     -31.00550000     -72.29470000
H      -46.29090000     -30.04830000     -70.74480000
H      -48.55220000     -33.03880000     -72.57980000
H      -44.57980000     -32.27250000     -74.02320000
H      -44.53590000     -30.23750000     -72.29990000
C      -46.57320000     -33.82850000     -74.44400000
H      -46.03060000     -33.47080000     -75.28590000
H      -47.59880000     -33.85190000     -74.77560000
C      -48.80620000     -31.33230000     -70.72530000
H      -49.11890000     -30.21890000     -70.66210000
H      -49.65060000     -31.76890000     -71.27660000
S      -45.91560000     -35.40830000     -74.08860000
S      -48.68500000     -32.23160000     -69.10850000
C      -46.52160000     -35.90240000     -72.34500000
H      -47.06480000     -34.96670000     -72.04040000
H      -47.12390000     -36.72600000     -72.48730000
C      -46.86110000     -32.45550000     -68.65190000
H      -46.96630000     -32.65870000     -67.57000000
H      -46.25690000     -31.58200000     -68.90180000
C      -46.14240000     -33.67340000     -69.31570000
H      -46.11460000     -34.63690000     -68.65100000
H      -46.68810000     -33.95550000     -70.20330000
C      -45.32380000     -36.19560000     -71.44950000
H      -44.94560000     -37.17020000     -71.70890000
H      -45.64370000     -36.31920000     -70.43010000
C      -44.17600000     -35.19660000     -71.47740000
C      -43.07630000     -35.48950000     -72.20670000
C      -43.94430000     -34.07190000     -70.58960000
H      -43.02260000     -36.38000000     -72.79730000
C      -42.61440000     -33.67570000     -70.65890000
C      -44.72010000     -33.33270000     -69.62780000
C      -43.94210000     -32.40030000     -68.93690000
S      -41.66090000     -34.47360000     -71.84200000
S      -42.24330000     -32.35600000     -69.61210000
H      -44.42350000     -31.67100000     -68.26440000
