40
Properties=species:S:1:pos:R:3 #=T CELL(abcABC):=T 1.889726e+02=T 90.00000=T Traj:=T positionsangstrom=T Step:=T 0=T Bead:=T pbc="F F F"
C      -46.37370000     -30.72980000     -71.75940000
C      -47.55690000     -31.46020000     -71.83400000
C      -47.59610000     -32.59100000     -72.62250000
C      -46.55360000     -32.81320000     -73.49910000
C      -45.37730000     -32.07760000     -73.48330000
C      -45.24020000     -31.02940000     -72.57040000
H      -46.33760000     -29.86380000     -71.03320000
H      -48.46410000     -33.25590000     -72.48520000
H      -44.54000000     -32.17220000     -74.17180000
H      -44.24990000     -30.52710000     -72.44510000
C      -46.79670000     -33.99460000     -74.40070000
H      -46.41130000     -33.75990000     -75.43050000
H      -47.80270000     -34.17710000     -74.43460000
C      -48.62210000     -31.10300000     -70.81230000
H      -48.43750000     -30.12620000     -70.43360000
H      -49.64080000     -31.17540000     -71.25870000
S      -45.91110000     -35.49360000     -73.78300000
S      -48.62360000     -32.21540000     -69.28370000
C      -46.52680000     -35.68510000     -72.03560000
H      -46.77160000     -34.74990000     -71.65950000
H      -47.45010000     -36.32380000     -71.96220000
C      -46.84790000     -32.25460000     -68.76310000
H      -46.86820000     -32.16750000     -67.65510000
H      -46.46170000     -31.24060000     -69.08610000
C      -46.11200000     -33.51060000     -69.18420000
H      -46.35670000     -34.19780000     -68.31870000
H      -46.68420000     -33.96270000     -70.06490000
C      -45.41630000     -36.23810000     -71.09230000
H      -45.07130000     -37.19710000     -71.42620000
H      -45.89050000     -36.33220000     -70.11570000
C      -44.11130000     -35.43130000     -71.10220000
C      -43.07570000     -35.79210000     -71.90440000
C      -43.85960000     -34.20240000     -70.36850000
H      -43.14240000     -36.72700000     -72.52830000
C      -42.62300000     -33.67070000     -70.69390000
C      -44.65180000     -33.28430000     -69.48700000
C      -43.90850000     -32.12240000     -69.20260000
S      -41.67410000     -34.75060000     -71.74190000
S      -42.27190000     -32.19610000     -69.85810000
H      -44.20260000     -31.30810000     -68.61420000
