40
Properties=species:S:1:pos:R:3 #=T CELL(abcABC):=T 1.889726e+02=T 90.00000=T Traj:=T positionsangstrom=T Step:=T 0=T Bead:=T pbc="F F F"
C      -46.14490000     -32.99130000     -74.95240000
C      -45.02650000     -32.21390000     -74.50340000
C      -43.85390000     -32.92040000     -74.11120000
C      -43.81480000     -34.32870000     -74.13620000
C      -44.96240000     -35.06650000     -74.61620000
C      -46.15500000     -34.36270000     -74.95730000
H      -47.18320000     -32.62290000     -75.10090000
H      -43.06640000     -32.30630000     -73.63800000
H      -44.84390000     -36.13860000     -74.71100000
H      -47.04370000     -34.86180000     -75.26930000
C      -42.50360000     -35.03270000     -73.74700000
H      -41.60600000     -34.56370000     -74.17800000
H      -42.37260000     -36.06710000     -74.03440000
C      -44.97800000     -30.67690000     -74.45930000
H      -44.12580000     -30.36560000     -75.05250000
H      -45.93540000     -30.21410000     -74.93270000
S      -42.09500000     -34.99310000     -71.90940000
S      -44.73060000     -29.96490000     -72.76430000
C      -43.75600000     -35.07350000     -71.12660000
H      -44.46420000     -34.66420000     -71.80070000
H      -43.93380000     -36.13600000     -70.94280000
C      -46.00450000     -30.73190000     -71.72240000
H      -46.96840000     -30.84600000     -72.26720000
H      -46.22790000     -30.07080000     -70.87210000
C      -45.48900000     -32.03930000     -71.10490000
H      -45.31930000     -32.74900000     -71.94390000
H      -44.52460000     -31.85300000     -70.63520000
C      -43.63570000     -34.31010000     -69.82470000
H      -43.28140000     -33.38520000     -69.94530000
H      -42.83190000     -34.76410000     -69.18270000
C      -44.89640000     -34.41950000     -68.96530000
C      -45.05810000     -35.31360000     -67.88760000
C      -46.09130000     -33.68800000     -69.19990000
H      -44.38650000     -36.03590000     -67.39700000
C      -47.19800000     -33.99790000     -68.41060000
C      -46.46490000     -32.67890000     -70.15640000
C      -47.70260000     -32.19230000     -70.04540000
S      -46.74670000     -35.19160000     -67.22480000
S      -48.62040000     -32.99420000     -68.74210000
H      -48.11020000     -31.48520000     -70.73800000
