40
Properties=species:S:1:pos:R:3 #=T CELL(abcABC):=T 1.889726e+02=T 90.00000=T Traj:=T positionsangstrom=T Step:=T 0=T Bead:=T pbc="F F F"
C      -46.10150000     -33.00740000     -74.55720000
C      -44.85590000     -32.30070000     -74.57230000
C      -43.69100000     -33.06380000     -74.32960000
C      -43.75220000     -34.42990000     -74.17710000
C      -44.97210000     -35.14510000     -74.27370000
C      -46.12510000     -34.36810000     -74.39220000
H      -47.04990000     -32.55270000     -74.80200000
H      -42.61930000     -32.67050000     -74.32020000
H      -44.98470000     -36.19620000     -74.22710000
H      -47.08480000     -34.81270000     -74.39260000
C      -42.54010000     -35.19880000     -73.73430000
H      -41.73480000     -34.88110000     -74.34910000
H      -42.70400000     -36.28110000     -73.79390000
C      -44.96840000     -30.78450000     -74.63510000
H      -44.33020000     -30.35600000     -75.33370000
H      -45.99380000     -30.53180000     -74.89500000
S      -42.08140000     -34.78090000     -71.99810000
S      -44.63670000     -29.89520000     -73.00620000
C      -43.55820000     -35.22110000     -71.06880000
H      -44.48670000     -34.88880000     -71.63500000
H      -43.65980000     -36.33320000     -71.02580000
C      -46.01100000     -30.64930000     -71.93070000
H      -46.86160000     -30.81320000     -72.55070000
H      -46.30080000     -29.84860000     -71.21310000
C      -45.55680000     -31.92210000     -71.19180000
H      -45.36800000     -32.76880000     -71.89510000
H      -44.61400000     -31.69990000     -70.68230000
C      -43.60720000     -34.42890000     -69.69430000
H      -43.19070000     -33.43390000     -69.91570000
H      -42.78030000     -34.82900000     -69.02420000
C      -44.91970000     -34.40230000     -68.92210000
C      -45.15590000     -35.22670000     -67.80800000
C      -46.11770000     -33.63330000     -69.26260000
H      -44.43000000     -35.84840000     -67.34310000
C      -47.18720000     -33.95620000     -68.42360000
C      -46.60000000     -32.55680000     -70.23000000
C      -47.87030000     -32.23100000     -70.01640000
S      -46.77240000     -35.05080000     -67.13330000
S      -48.74650000     -33.20030000     -68.78920000
H      -48.35540000     -31.46400000     -70.55960000
