40
Properties=species:S:1:pos:R:3 #=T CELL(abcABC):=T 1.889726e+02=T 90.00000=T Traj:=T positionsangstrom=T Step:=T 0=T Bead:=T pbc="F F F"
C      -46.45300000     -33.50850000     -74.53020000
C      -45.33120000     -32.64320000     -74.38200000
C      -44.07270000     -33.18250000     -74.03320000
C      -43.94000000     -34.53650000     -73.65530000
C      -45.11860000     -35.32280000     -73.67550000
C      -46.36340000     -34.80060000     -74.04950000
H      -47.42700000     -33.15940000     -74.91130000
H      -43.32450000     -32.38940000     -73.63880000
H      -44.96540000     -36.33060000     -73.41360000
H      -47.25940000     -35.32980000     -74.05550000
C      -42.62580000     -35.15120000     -73.30220000
H      -41.91430000     -34.86960000     -74.04160000
H      -42.81480000     -36.23360000     -73.26400000
C      -45.44510000     -31.21060000     -74.72230000
H      -44.77370000     -30.94220000     -75.53290000
H      -46.45970000     -30.76780000     -74.93790000
S      -41.89600000     -34.63790000     -71.71470000
S      -44.79170000     -30.07970000     -73.37780000
C      -43.22920000     -34.92670000     -70.46010000
H      -44.16150000     -35.06940000     -71.06300000
H      -43.10030000     -35.89730000     -69.90670000
C      -46.04860000     -30.62990000     -72.11150000
H      -46.78650000     -31.05020000     -72.74210000
H      -46.28310000     -29.70310000     -71.52120000
C      -45.41420000     -31.53680000     -71.12950000
H      -44.78610000     -32.29240000     -71.69400000
H      -44.67050000     -31.02690000     -70.52580000
C      -43.35140000     -33.79130000     -69.44730000
H      -43.23230000     -32.91360000     -70.06460000
H      -42.56430000     -33.86920000     -68.59380000
C      -44.75440000     -33.92500000     -68.81440000
C      -44.97470000     -34.86720000     -67.84190000
C      -45.99370000     -33.31400000     -69.30150000
H      -44.29480000     -35.64850000     -67.67060000
C      -47.07370000     -33.88090000     -68.69950000
C      -46.39790000     -32.36370000     -70.30480000
C      -47.74910000     -32.29420000     -70.48140000
S      -46.68940000     -35.11400000     -67.42290000
S      -48.56210000     -33.36740000     -69.36430000
H      -48.30840000     -31.70090000     -71.21100000
