40
Properties=species:S:1:pos:R:3 #=T CELL(abcABC):=T 1.889726e+02=T 90.00000=T Traj:=T positionsangstrom=T Step:=T 0=T Bead:=T pbc="F F F"
C      -45.93870000     -30.70450000     -73.22920000
C      -47.04010000     -30.88510000     -72.34790000
C      -47.67480000     -32.10410000     -72.28490000
C      -47.30720000     -33.20220000     -73.09960000
C      -46.20390000     -33.08130000     -73.87660000
C      -45.48470000     -31.82470000     -73.92280000
H      -45.38490000     -29.74600000     -73.14700000
H      -48.59810000     -32.16790000     -71.65780000
H      -45.82930000     -33.81950000     -74.51580000
H      -44.53540000     -31.66170000     -74.52520000
C      -47.98280000     -34.50840000     -72.98990000
H      -48.06570000     -34.96850000     -73.99560000
H      -49.02020000     -34.41070000     -72.59630000
C      -47.40210000     -29.76340000     -71.41130000
H      -46.89430000     -28.77190000     -71.59300000
H      -48.46680000     -29.54890000     -71.56090000
S      -47.04420000     -35.70910000     -71.91110000
S      -47.01500000     -30.13420000     -69.60000000
C      -47.20460000     -35.13600000     -70.21550000
H      -47.34680000     -34.02580000     -70.18930000
H      -48.15450000     -35.50420000     -69.78630000
C      -45.32180000     -30.80270000     -69.54820000
H      -44.83870000     -30.29860000     -68.65280000
H      -44.80370000     -30.50830000     -70.39980000
C      -45.17440000     -32.35070000     -69.49380000
H      -45.37870000     -32.70940000     -68.45870000
H      -46.02660000     -32.74290000     -70.13570000
C      -46.02390000     -35.66780000     -69.40230000
H      -46.19150000     -36.79440000     -69.31460000
H      -45.86060000     -35.29330000     -68.46640000
C      -44.74390000     -35.52430000     -70.15780000
C      -44.29020000     -36.61000000     -70.81630000
C      -43.87530000     -34.38820000     -70.37650000
H      -44.76780000     -37.56770000     -70.69390000
C      -42.77170000     -34.64000000     -71.18110000
C      -43.98020000     -32.93270000     -70.14180000
C      -42.83070000     -32.28130000     -70.54750000
S      -42.80960000     -36.33790000     -71.72650000
S      -41.66740000     -33.30390000     -71.43310000
H      -42.83720000     -31.20110000     -70.60130000
