40
Properties=species:S:1:pos:R:3 #=T CELL(abcABC):=T 1.889726e+02=T 90.00000=T Traj:=T positionsangstrom=T Step:=T 0=T Bead:=T pbc="F F F"
C      -45.84150000     -30.67740000     -73.06790000
C      -46.98660000     -30.79630000     -72.28320000
C      -47.76420000     -31.99990000     -72.26460000
C      -47.34810000     -33.07640000     -73.03290000
C      -46.26290000     -32.92050000     -73.89450000
C      -45.49340000     -31.73720000     -73.92740000
H      -45.30430000     -29.72000000     -73.11330000
H      -48.50190000     -32.02920000     -71.49060000
H      -45.94380000     -33.84070000     -74.41510000
H      -44.64990000     -31.62750000     -74.54740000
C      -48.13810000     -34.44950000     -72.93250000
H      -48.37880000     -34.82430000     -73.86080000
H      -49.05400000     -34.23940000     -72.28750000
C      -47.43490000     -29.66160000     -71.27060000
H      -46.90130000     -28.70660000     -71.44180000
H      -48.53670000     -29.66880000     -71.30950000
S      -47.06320000     -35.75620000     -72.22720000
S      -47.07460000     -30.17270000     -69.50460000
C      -47.26600000     -35.39640000     -70.33680000
H      -47.64040000     -34.36910000     -70.23210000
H      -48.06730000     -36.05840000     -70.02350000
C      -45.31170000     -30.83280000     -69.75340000
H      -44.73650000     -30.25750000     -68.98540000
H      -44.87260000     -30.44930000     -70.69080000
C      -45.30740000     -32.32410000     -69.47050000
H      -45.32250000     -32.49890000     -68.36390000
H      -46.20010000     -32.64600000     -69.94270000
C      -45.99070000     -35.66850000     -69.53590000
H      -46.20280000     -36.61930000     -69.01920000
H      -46.02720000     -34.90140000     -68.76530000
C      -44.60780000     -35.66550000     -70.24360000
C      -44.02440000     -36.75900000     -70.79450000
C      -43.89080000     -34.45460000     -70.48920000
H      -44.46890000     -37.66640000     -70.99290000
C      -42.69700000     -34.64710000     -71.13080000
C      -44.08090000     -33.05370000     -70.09430000
C      -43.01520000     -32.27250000     -70.48780000
S      -42.53740000     -36.34800000     -71.59400000
S      -41.76170000     -33.22680000     -71.36600000
H      -42.83800000     -31.19630000     -70.52570000
