40
Properties=species:S:1:pos:R:3 #=T CELL(abcABC):=T 1.889726e+02=T 90.00000=T Traj:=T positionsangstrom=T Step:=T 0=T Bead:=T pbc="F F F"
C      -45.28410000     -31.40110000     -73.00690000
C      -46.57790000     -31.14990000     -72.60190000
C      -47.55570000     -32.26040000     -72.72670000
C      -47.13410000     -33.48930000     -73.11200000
C      -45.79690000     -33.71880000     -73.54060000
C      -44.87450000     -32.67290000     -73.49890000
H      -44.58230000     -30.55550000     -73.04450000
H      -48.53700000     -32.11100000     -72.33230000
H      -45.46380000     -34.67780000     -73.72180000
H      -43.84800000     -32.88200000     -73.80720000
C      -48.08190000     -34.64610000     -72.98130000
H      -48.09340000     -35.38550000     -73.85320000
H      -49.10150000     -34.24240000     -72.87630000
C      -47.01810000     -29.82130000     -72.00230000
H      -46.46390000     -29.02900000     -72.60500000
H      -48.08690000     -29.77850000     -72.16390000
S      -47.61700000     -35.78310000     -71.58230000
S      -46.79880000     -29.68290000     -70.15420000
C      -47.38440000     -34.66530000     -70.14270000
H      -47.07860000     -33.68180000     -70.53780000
H      -48.37670000     -34.56170000     -69.63540000
C      -45.06760000     -30.39370000     -69.95870000
H      -44.60640000     -29.87430000     -69.14610000
H      -44.47220000     -30.13000000     -70.83450000
C      -45.14260000     -31.93390000     -69.66540000
H      -45.40300000     -32.16350000     -68.63960000
H      -46.10700000     -32.21660000     -70.18180000
C      -46.26270000     -35.07380000     -69.27860000
H      -46.56370000     -35.86620000     -68.57430000
H      -46.09540000     -34.24370000     -68.54020000
C      -44.98030000     -35.30580000     -70.00370000
C      -44.43010000     -36.54470000     -70.25470000
C      -44.06910000     -34.21940000     -70.41630000
H      -44.69810000     -37.51680000     -69.93110000
C      -43.00060000     -34.73360000     -71.09980000
C      -44.01270000     -32.76900000     -70.23050000
C      -42.91080000     -32.24370000     -70.76870000
S      -42.89740000     -36.42450000     -71.20400000
S      -41.93160000     -33.40680000     -71.60190000
H      -42.73740000     -31.22540000     -71.00380000
