40
Properties=species:S:1:pos:R:3 #=T CELL(abcABC):=T 1.889726e+02=T 90.00000=T Traj:=T positionsangstrom=T Step:=T 0=T Bead:=T pbc="F F F"
C      -45.48980000     -31.30410000     -73.18690000
C      -46.69370000     -31.18110000     -72.38140000
C      -47.52730000     -32.29080000     -72.41620000
C      -47.19290000     -33.46820000     -73.09460000
C      -45.98580000     -33.59950000     -73.72050000
C      -45.11490000     -32.46930000     -73.76860000
H      -44.81340000     -30.42510000     -73.17790000
H      -48.53030000     -32.25980000     -71.90850000
H      -45.64860000     -34.45750000     -74.22150000
H      -44.24980000     -32.62750000     -74.31160000
C      -48.09310000     -34.66550000     -72.99520000
H      -48.08650000     -35.18240000     -73.91760000
H      -49.11280000     -34.37230000     -72.85580000
C      -47.08600000     -29.86650000     -71.83070000
H      -46.51170000     -29.04060000     -72.32440000
H      -48.08880000     -29.58010000     -72.04970000
S      -47.65690000     -35.93810000     -71.73430000
S      -46.79710000     -29.81690000     -69.98410000
C      -47.38140000     -34.77060000     -70.27620000
H      -47.04250000     -33.81010000     -70.70090000
H      -48.27330000     -34.60490000     -69.74410000
C      -45.03680000     -30.43790000     -69.79250000
H      -44.73710000     -29.83740000     -68.91210000
H      -44.46450000     -30.24230000     -70.71260000
C      -44.97500000     -31.92290000     -69.38750000
H      -44.57550000     -31.95450000     -68.39280000
H      -45.93720000     -32.46490000     -69.41980000
C      -46.27140000     -35.22420000     -69.37690000
H      -46.45230000     -36.32790000     -69.09530000
H      -46.33130000     -34.55790000     -68.54860000
C      -44.88220000     -35.25900000     -69.99290000
C      -44.33600000     -36.48480000     -70.36960000
C      -43.99040000     -34.17860000     -70.41520000
H      -44.81040000     -37.42510000     -70.24970000
C      -42.84620000     -34.62040000     -71.06290000
C      -44.01170000     -32.73310000     -70.25250000
C      -42.95640000     -32.16120000     -70.88200000
S      -42.84490000     -36.37110000     -71.19340000
S      -41.83740000     -33.31890000     -71.65960000
H      -42.68450000     -31.10500000     -71.00640000
