40
Properties=species:S:1:pos:R:3 #=T CELL(abcABC):=T 1.889726e+02=T 90.00000=T Traj:=T positionsangstrom=T Step:=T 0=T Bead:=T pbc="F F F"
C      -43.39250000     -32.22210000     -69.63670000
C      -44.11880000     -33.20400000     -68.92290000
C      -45.46870000     -33.05050000     -68.70710000
C      -46.17670000     -31.84190000     -69.13240000
C      -45.44840000     -30.86970000     -69.79370000
C      -44.03840000     -31.05690000     -69.96810000
H      -42.26920000     -32.23120000     -69.75590000
H      -45.95000000     -33.90930000     -68.20380000
H      -45.84650000     -29.89270000     -70.01750000
H      -43.52150000     -30.25050000     -70.41480000
C      -47.68130000     -31.65120000     -68.89000000
H      -47.90730000     -30.72580000     -68.33430000
H      -48.10370000     -32.42900000     -68.18010000
C      -43.35300000     -34.37040000     -68.44650000
H      -42.63800000     -34.14530000     -67.61190000
H      -44.10990000     -35.07430000     -67.92080000
S      -48.47490000     -31.58760000     -70.52750000
S      -42.54230000     -35.39270000     -69.75780000
C      -48.79820000     -33.34890000     -70.84750000
H      -49.13480000     -33.79450000     -69.86280000
H      -49.51710000     -33.53960000     -71.62460000
C      -43.79740000     -36.65710000     -70.41720000
H      -44.15340000     -37.32030000     -69.67350000
H      -43.08320000     -37.25680000     -70.99990000
C      -44.97360000     -35.94790000     -71.07410000
H      -45.72640000     -36.65280000     -71.49640000
H      -45.47390000     -35.42680000     -70.20660000
C      -47.56990000     -34.13490000     -71.31510000
H      -47.99010000     -35.12680000     -71.56300000
H      -46.85790000     -34.23700000     -70.51180000
C      -46.87280000     -33.47130000     -72.55210000
C      -47.26810000     -32.59660000     -73.52250000
C      -45.49590000     -33.99390000     -72.80180000
H      -48.24670000     -32.23500000     -73.62980000
C      -44.88750000     -33.34960000     -73.85300000
C      -44.62010000     -34.94160000     -72.18680000
C      -43.35160000     -34.87210000     -72.77960000
S      -46.06720000     -32.32210000     -74.68140000
S      -43.23820000     -33.67860000     -74.08300000
H      -42.56350000     -35.51560000     -72.46700000
