40
Properties=species:S:1:pos:R:3 #=T CELL(abcABC):=T 1.889726e+02=T 90.00000=T Traj:=T positionsangstrom=T Step:=T 0=T Bead:=T pbc="F F F"
C      -45.79100000     -30.90260000     -73.21790000
C      -46.84730000     -31.01870000     -72.26340000
C      -47.53110000     -32.24930000     -72.16450000
C      -47.22360000     -33.30150000     -73.01080000
C      -46.14850000     -33.13800000     -73.96860000
C      -45.38280000     -32.00700000     -74.05580000
H      -45.24040000     -29.94190000     -73.27610000
H      -48.30970000     -32.29890000     -71.41670000
H      -45.88750000     -34.00820000     -74.65860000
H      -44.55260000     -31.83920000     -74.81200000
C      -47.98230000     -34.61340000     -72.93910000
H      -48.07850000     -35.06880000     -73.98020000
H      -48.95770000     -34.48960000     -72.61420000
C      -47.27970000     -29.79240000     -71.48950000
H      -46.80600000     -28.88600000     -71.81860000
H      -48.33950000     -29.60840000     -71.67550000
S      -47.21990000     -35.89440000     -71.83670000
S      -46.98520000     -30.12790000     -69.66480000
C      -47.30690000     -35.00050000     -70.21550000
H      -47.23750000     -33.99230000     -70.56540000
H      -48.23290000     -35.17660000     -69.72100000
C      -45.21390000     -30.62180000     -69.77390000
H      -44.73540000     -30.18310000     -68.88670000
H      -44.81560000     -30.21310000     -70.72500000
C      -45.21950000     -32.11230000     -69.53750000
H      -45.31280000     -32.32000000     -68.46860000
H      -46.14400000     -32.61820000     -69.91590000
C      -46.01050000     -35.29910000     -69.33060000
H      -46.23470000     -36.16080000     -68.67870000
H      -45.89350000     -34.45660000     -68.62220000
C      -44.75070000     -35.41750000     -70.10330000
C      -44.28240000     -36.58800000     -70.66960000
C      -43.93040000     -34.27930000     -70.40870000
H      -44.74650000     -37.59730000     -70.55590000
C      -42.85220000     -34.62040000     -71.24050000
C      -44.01060000     -32.84980000     -70.13320000
C      -42.82810000     -32.23070000     -70.60640000
S      -42.85120000     -36.32400000     -71.62650000
S      -41.75410000     -33.32960000     -71.48960000
H      -42.60830000     -31.16510000     -70.56640000
