40
Properties=species:S:1:pos:R:3 #=T CELL(abcABC):=T 1.889726e+02=T 90.00000=T Traj:=T positionsangstrom=T Step:=T 0=T Bead:=T pbc="F F F"
C      -48.85200000     -36.03490000     -72.01940000
C      -48.59340000     -34.67080000     -71.72180000
C      -48.10550000     -34.38290000     -70.42360000
C      -47.88560000     -35.39030000     -69.45990000
C      -48.03780000     -36.70960000     -69.84580000
C      -48.48640000     -37.04460000     -71.11360000
H      -49.31910000     -36.29010000     -73.03100000
H      -48.08060000     -33.32750000     -70.14710000
H      -47.72160000     -37.39150000     -69.01680000
H      -48.70000000     -38.09560000     -71.31320000
C      -47.17310000     -35.03620000     -68.16460000
H      -47.58160000     -35.69180000     -67.33360000
H      -47.27180000     -34.00280000     -67.87140000
C      -49.02170000     -33.68390000     -72.72790000
H      -49.94880000     -34.02350000     -73.17780000
H      -49.15140000     -32.61800000     -72.34420000
S      -45.34960000     -35.50100000     -68.23140000
S      -47.85810000     -33.49240000     -74.16960000
C      -44.62020000     -34.06310000     -69.16510000
H      -45.42030000     -33.42700000     -69.33740000
H      -43.88520000     -33.53110000     -68.44520000
C      -46.62900000     -32.18100000     -73.79580000
H      -47.19770000     -31.26500000     -73.60460000
H      -46.20650000     -32.18240000     -74.86640000
C      -45.63090000     -32.59250000     -72.75470000
H      -46.21170000     -32.62890000     -71.78960000
H      -45.45940000     -33.63060000     -72.87600000
C      -43.81040000     -34.39750000     -70.44990000
H      -44.49670000     -34.63760000     -71.27190000
H      -43.10080000     -35.23050000     -70.34860000
C      -42.91560000     -33.26460000     -70.78960000
C      -41.68950000     -33.08090000     -70.26680000
C      -43.27330000     -32.17420000     -71.64850000
H      -41.30920000     -33.76350000     -69.49270000
C      -42.27230000     -31.18330000     -71.69450000
C      -44.43220000     -31.75690000     -72.48310000
C      -44.27720000     -30.51840000     -73.04760000
S      -40.87300000     -31.62920000     -70.76830000
S      -42.68970000     -29.82500000     -72.80800000
H      -45.02200000     -30.15470000     -73.81620000
