40
Properties=species:S:1:pos:R:3 #=T CELL(abcABC):=T 1.889726e+02=T 90.00000=T Traj:=T positionsangstrom=T Step:=T 0=T Bead:=T pbc="F F F"
C      -49.31450000     -35.37610000     -71.90970000
C      -48.67200000     -34.23270000     -71.47130000
C      -47.91750000     -34.27290000     -70.29480000
C      -47.80440000     -35.44100000     -69.59550000
C      -48.32000000     -36.70100000     -70.09880000
C      -49.10540000     -36.61880000     -71.24090000
H      -49.75370000     -35.22520000     -72.87220000
H      -47.49930000     -33.33520000     -69.88680000
H      -48.09130000     -37.62470000     -69.68800000
H      -49.66380000     -37.38440000     -71.69130000
C      -47.07920000     -35.35700000     -68.25590000
H      -47.52210000     -35.98320000     -67.50470000
H      -47.13180000     -34.30080000     -68.02950000
C      -48.89070000     -32.94300000     -72.21990000
H      -49.90830000     -32.68870000     -72.35380000
H      -48.39520000     -32.13840000     -71.62860000
S      -45.21060000     -35.82980000     -68.32160000
S      -48.11550000     -33.13300000     -73.92220000
C      -44.36970000     -34.41800000     -69.14620000
H      -45.04600000     -33.52390000     -69.34230000
H      -43.66960000     -33.97470000     -68.50840000
C      -46.64540000     -32.01890000     -73.77280000
H      -47.01380000     -31.02650000     -73.43990000
H      -46.18480000     -31.99460000     -74.76900000
C      -45.72640000     -32.59450000     -72.66530000
H      -46.29680000     -32.67710000     -71.77770000
H      -45.46200000     -33.59710000     -72.86960000
C      -43.71210000     -34.67790000     -70.51620000
H      -44.47160000     -34.78280000     -71.20620000
H      -43.14260000     -35.58350000     -70.45110000
C      -42.85650000     -33.49520000     -71.00750000
C      -41.56820000     -33.47290000     -70.60340000
C      -43.30280000     -32.27050000     -71.72470000
H      -41.02580000     -34.19480000     -70.05770000
C      -42.18720000     -31.33730000     -71.77250000
C      -44.40060000     -31.75850000     -72.42610000
C      -44.17720000     -30.49730000     -72.98550000
S      -40.72610000     -31.96670000     -71.08110000
S      -42.62140000     -29.83120000     -72.61150000
H      -44.79220000     -30.02340000     -73.69850000
