40
Properties=species:S:1:pos:R:3 #=T CELL(abcABC):=T 1.889726e+02=T 90.00000=T Traj:=T positionsangstrom=T Step:=T 0=T Bead:=T pbc="F F F"
C      -48.28500000     -36.30580000     -72.31400000
C      -48.42420000     -34.99670000     -71.77950000
C      -48.13960000     -34.80440000     -70.46250000
C      -47.69090000     -35.85250000     -69.57190000
C      -47.52860000     -37.12550000     -70.12540000
C      -47.87560000     -37.37760000     -71.47790000
H      -48.27270000     -36.68390000     -73.34250000
H      -48.24210000     -33.75620000     -70.05260000
H      -47.20710000     -37.89740000     -69.41950000
H      -47.68080000     -38.38360000     -71.74670000
C      -47.32830000     -35.63160000     -68.09450000
H      -47.52170000     -36.51860000     -67.45600000
H      -47.80280000     -34.73060000     -67.76430000
C      -48.77420000     -33.85200000     -72.83740000
H      -49.84740000     -33.97490000     -73.18200000
H      -48.80320000     -32.81720000     -72.35080000
S      -45.47770000     -35.47210000     -68.18320000
S      -47.63320000     -33.77520000     -74.26020000
C      -45.07060000     -33.97610000     -69.17170000
H      -45.91920000     -33.59760000     -69.81860000
H      -44.77020000     -33.15620000     -68.50080000
C      -46.52490000     -32.37600000     -73.79840000
H      -47.10340000     -31.63570000     -73.28790000
H      -46.05010000     -31.93300000     -74.73820000
C      -45.36950000     -32.87790000     -72.94420000
H      -45.82020000     -33.14490000     -71.97260000
H      -44.92260000     -33.80530000     -73.36050000
C      -43.82370000     -34.12550000     -70.09800000
H      -44.05360000     -34.67020000     -70.95520000
H      -43.09290000     -34.68400000     -69.45090000
C      -43.19540000     -32.73400000     -70.39420000
C      -42.10380000     -32.32970000     -69.69280000
C      -43.45220000     -31.92950000     -71.57740000
H      -41.76310000     -32.83430000     -68.80560000
C      -42.56940000     -30.83090000     -71.64800000
C      -44.34930000     -31.78510000     -72.72560000
C      -44.02380000     -30.70300000     -73.57380000
S      -41.47700000     -30.83500000     -70.29040000
S      -42.70650000     -29.73810000     -72.95850000
H      -44.56810000     -30.36290000     -74.42030000
