40
Properties=species:S:1:pos:R:3 #=T CELL(abcABC):=T 1.889726e+02=T 90.00000=T Traj:=T positionsangstrom=T Step:=T 0=T Bead:=T pbc="F F F"
C      -48.91270000     -36.06270000     -72.27330000
C      -48.74130000     -34.75990000     -71.78090000
C      -48.13400000     -34.49660000     -70.50890000
C      -47.75990000     -35.57960000     -69.64900000
C      -47.97550000     -36.82600000     -70.19060000
C      -48.54250000     -37.06950000     -71.43100000
H      -49.29350000     -36.14750000     -73.22060000
H      -48.14920000     -33.41680000     -70.16390000
H      -47.76460000     -37.72170000     -69.64200000
H      -48.66330000     -38.11930000     -71.72130000
C      -47.29770000     -35.30830000     -68.24110000
H      -47.74490000     -35.97280000     -67.54790000
H      -47.68420000     -34.26470000     -67.93730000
C      -49.01870000     -33.60290000     -72.65040000
H      -50.01850000     -33.51860000     -73.16580000
H      -48.95220000     -32.64350000     -72.08970000
S      -45.41750000     -35.26600000     -68.01210000
S      -47.93350000     -33.57670000     -74.17920000
C      -44.56660000     -33.91840000     -69.04930000
H      -45.37900000     -33.40550000     -69.63430000
H      -44.16360000     -33.25250000     -68.36650000
C      -46.49780000     -32.44960000     -73.76800000
H      -46.75670000     -31.38690000     -73.46000000
H      -46.01370000     -32.49590000     -74.73940000
C      -45.50240000     -32.94550000     -72.71670000
H      -45.94430000     -33.11610000     -71.76230000
H      -45.12820000     -33.91140000     -73.04630000
C      -43.50050000     -34.32640000     -70.01920000
H      -43.88740000     -34.90360000     -70.92600000
H      -42.72420000     -34.98520000     -69.61880000
C      -42.88710000     -33.08000000     -70.41500000
C      -41.65570000     -32.65070000     -69.97740000
C      -43.31550000     -32.10560000     -71.47510000
H      -41.00650000     -33.20820000     -69.32290000
C      -42.34260000     -31.09730000     -71.70540000
C      -44.37410000     -31.98530000     -72.48300000
C      -44.13720000     -30.80600000     -73.31150000
S      -41.00500000     -31.23610000     -70.75360000
S      -42.68060000     -29.99410000     -72.99400000
H      -44.83330000     -30.56150000     -74.06040000
