40
Properties=species:S:1:pos:R:3 #=T CELL(abcABC):=T 1.889726e+02=T 90.00000=T Traj:=T positionsangstrom=T Step:=T 0=T Bead:=T pbc="F F F"
C      -49.32570000     -35.32560000     -71.98630000
C      -48.84540000     -34.10740000     -71.39180000
C      -48.16050000     -34.13860000     -70.20810000
C      -47.87060000     -35.36980000     -69.52650000
C      -48.34960000     -36.56540000     -70.12280000
C      -49.06240000     -36.54400000     -71.31080000
H      -49.94660000     -35.29140000     -72.91450000
H      -47.71760000     -33.20240000     -69.94720000
H      -48.11460000     -37.47210000     -69.67450000
H      -49.50200000     -37.47610000     -71.62310000
C      -46.99630000     -35.49620000     -68.31800000
H      -47.36020000     -36.35760000     -67.73730000
H      -46.91720000     -34.72420000     -67.59030000
C      -49.02690000     -32.81900000     -72.16350000
H      -50.12090000     -32.71990000     -72.35090000
H      -48.64750000     -31.94120000     -71.58280000
S      -45.14250000     -35.95760000     -68.62610000
S      -48.23620000     -32.78910000     -73.83750000
C      -44.28530000     -34.48670000     -69.29410000
H      -44.85380000     -33.60400000     -69.15130000
H      -43.29520000     -34.44740000     -68.74400000
C      -46.67840000     -31.89430000     -73.36040000
H      -47.08830000     -30.99250000     -72.90110000
H      -46.16820000     -31.65990000     -74.35080000
C      -45.62050000     -32.64480000     -72.46450000
H      -46.02860000     -33.10750000     -71.50160000
H      -45.37380000     -33.58160000     -73.05800000
C      -43.80010000     -34.73070000     -70.70370000
H      -44.54420000     -34.74640000     -71.51980000
H      -43.20110000     -35.70010000     -70.79190000
C      -42.85060000     -33.58480000     -71.03190000
C      -41.54870000     -33.55800000     -70.64100000
C      -43.17480000     -32.33780000     -71.75820000
H      -41.00170000     -34.37870000     -70.31020000
C      -42.06460000     -31.43760000     -71.83640000
C      -44.38540000     -31.82200000     -72.32400000
C      -44.20470000     -30.53970000     -72.84930000
S      -40.65440000     -32.10490000     -71.12050000
S      -42.57640000     -29.89820000     -72.52700000
H      -44.83660000     -29.97110000     -73.42330000
