40
Properties=species:S:1:pos:R:3 #=T CELL(abcABC):=T 1.889726e+02=T 90.00000=T Traj:=T positionsangstrom=T Step:=T 0=T Bead:=T pbc="F F F"
C      -46.12450000     -30.42260000     -74.29220000
C      -45.98550000     -30.43910000     -72.89900000
C      -44.74790000     -30.71980000     -72.30690000
C      -43.59250000     -30.93430000     -73.16330000
C      -43.76430000     -30.86060000     -74.61610000
C      -45.02640000     -30.56990000     -75.15840000
H      -47.11310000     -30.25030000     -74.71460000
H      -44.74170000     -30.88730000     -71.21830000
H      -42.87320000     -30.84860000     -75.18990000
H      -45.20630000     -30.50220000     -76.27500000
C      -42.26790000     -31.22760000     -72.57750000
H      -42.19780000     -31.03910000     -71.48280000
H      -41.44630000     -30.57560000     -73.06200000
C      -47.13880000     -30.16420000     -72.05250000
H      -46.84960000     -29.91440000     -71.06040000
H      -47.78050000     -29.38630000     -72.47730000
S      -41.89340000     -32.98530000     -73.08350000
S      -48.41410000     -31.48880000     -72.13270000
C      -42.31300000     -33.86650000     -71.49180000
H      -41.86610000     -34.83510000     -71.68570000
H      -41.61300000     -33.35310000     -70.78100000
C      -47.51990000     -33.00830000     -71.61570000
H      -46.82880000     -33.48520000     -72.36450000
H      -48.20000000     -33.86030000     -71.56680000
C      -46.93040000     -32.83910000     -70.20870000
H      -45.98840000     -32.24620000     -70.29470000
H      -47.59240000     -32.17740000     -69.66020000
C      -43.76550000     -33.92630000     -71.27550000
H      -44.35090000     -33.98030000     -72.25110000
H      -44.10850000     -32.94610000     -70.76870000
C      -44.34360000     -35.02410000     -70.43100000
C      -43.76400000     -36.24290000     -70.33040000
C      -45.56770000     -34.95570000     -69.63600000
H      -42.80940000     -36.55930000     -70.75340000
C      -45.81290000     -36.13820000     -68.94420000
C      -46.78690000     -34.13190000     -69.55700000
C      -47.77390000     -34.72370000     -68.79700000
S      -44.56450000     -37.33320000     -69.11590000
S      -47.38510000     -36.33770000     -68.29040000
H      -48.68860000     -34.30180000     -68.48260000
