40
Properties=species:S:1:pos:R:3 #=T CELL(abcABC):=T 1.889726e+02=T 90.00000=T Traj:=T positionsangstrom=T Step:=T 0=T Bead:=T pbc="F F F"
C      -44.23950000     -32.42200000     -75.19530000
C      -44.43440000     -31.40690000     -74.23480000
C      -43.54980000     -31.38270000     -73.17700000
C      -42.44270000     -32.26730000     -73.05200000
C      -42.25540000     -33.17450000     -74.04290000
C      -43.13200000     -33.26180000     -75.13690000
H      -44.89930000     -32.54580000     -76.02550000
H      -43.72640000     -30.74530000     -72.41130000
H      -41.40600000     -33.90550000     -74.01560000
H      -43.14800000     -34.12870000     -75.74210000
C      -41.55190000     -32.20600000     -71.84740000
H      -40.94370000     -31.30140000     -71.93790000
H      -40.87350000     -33.09630000     -71.74620000
C      -45.71550000     -30.57220000     -74.28000000
H      -45.61400000     -29.58410000     -74.65440000
H      -46.38800000     -31.06020000     -74.98960000
S      -42.41640000     -31.81390000     -70.26960000
S      -46.48650000     -30.49540000     -72.60990000
C      -43.23950000     -33.49550000     -70.02770000
H      -43.61220000     -33.83930000     -71.03040000
H      -42.56280000     -34.26730000     -69.74290000
C      -46.51110000     -32.26850000     -72.15800000
H      -45.47690000     -32.41450000     -71.89440000
H      -46.77890000     -32.90380000     -72.98670000
C      -47.47630000     -32.39450000     -71.03190000
H      -47.09780000     -31.91820000     -70.11040000
H      -48.46090000     -31.97320000     -71.26910000
C      -44.54490000     -33.21750000     -69.22300000
H      -44.99030000     -32.43720000     -69.90860000
H      -44.26170000     -32.75390000     -68.22250000
C      -45.36030000     -34.42510000     -69.16380000
C      -45.01790000     -35.53140000     -68.41890000
C      -46.61020000     -34.66920000     -69.93370000
H      -44.05960000     -35.70750000     -67.89860000
C      -47.05280000     -35.99320000     -69.71860000
C      -47.59520000     -33.80680000     -70.62290000
C      -48.75490000     -34.53740000     -70.79920000
S      -46.19890000     -36.82900000     -68.48790000
S      -48.75330000     -36.20660000     -70.18450000
H      -49.69650000     -34.17080000     -71.25840000
