40
Properties=species:S:1:pos:R:3 #=T CELL(abcABC):=T 1.889726e+02=T 90.00000=T Traj:=T positionsangstrom=T Step:=T 0=T Bead:=T pbc="F F F"
C      -46.09660000     -29.91610000     -72.65850000
C      -45.31960000     -30.77610000     -73.45980000
C      -44.01340000     -31.18350000     -73.00120000
C      -43.50820000     -30.73950000     -71.74380000
C      -44.36720000     -29.90980000     -70.93420000
C      -45.58490000     -29.51070000     -71.42900000
H      -47.13010000     -29.48980000     -72.87330000
H      -43.34070000     -31.76590000     -73.62020000
H      -43.94630000     -29.43440000     -70.06800000
H      -46.23480000     -28.81110000     -70.85860000
C      -42.12690000     -31.18680000     -71.37770000
H      -41.38790000     -30.37800000     -71.42850000
H      -41.82070000     -31.88280000     -72.09870000
C      -45.83270000     -31.34590000     -74.78440000
H      -46.99040000     -31.16480000     -74.85130000
H      -45.42230000     -30.77330000     -75.62880000
S      -41.91600000     -31.89980000     -69.71840000
S      -45.49880000     -33.09970000     -75.00660000
C      -43.47780000     -32.86740000     -69.40180000
H      -43.44890000     -33.22690000     -68.33420000
H      -44.29370000     -32.17550000     -69.60340000
C      -46.69620000     -33.77200000     -73.82140000
H      -46.50460000     -34.86640000     -73.96740000
H      -47.66790000     -33.51120000     -74.18630000
C      -46.48530000     -33.38250000     -72.33600000
H      -45.41300000     -33.17240000     -72.17180000
H      -47.08740000     -32.40460000     -72.12290000
C      -43.62700000     -34.11980000     -70.33520000
H      -42.67130000     -34.58520000     -70.35630000
H      -43.77990000     -33.73550000     -71.33790000
C      -44.79160000     -34.95730000     -69.90700000
C      -44.55520000     -35.84600000     -68.87670000
C      -46.13570000     -35.01710000     -70.38020000
H      -43.54600000     -35.97900000     -68.48700000
C      -46.86320000     -36.02820000     -69.67590000
C      -46.97720000     -34.51310000     -71.44570000
C      -48.20860000     -35.09550000     -71.52560000
S      -45.89120000     -36.80130000     -68.40650000
S      -48.43190000     -36.31760000     -70.32880000
H      -48.90700000     -34.96860000     -72.36410000
