40
Properties=species:S:1:pos:R:3 #=T CELL(abcABC):=T 1.889726e+02=T 90.00000=T Traj:=T positionsangstrom=T Step:=T 0=T Bead:=T pbc="F F F"
C      -45.88830000     -29.93640000     -74.53490000
C      -45.97460000     -30.20490000     -73.10780000
C      -44.83510000     -30.80740000     -72.48900000
C      -43.65600000     -31.05270000     -73.19380000
C      -43.62740000     -31.01560000     -74.59130000
C      -44.70800000     -30.33550000     -75.21990000
H      -46.79040000     -29.61950000     -75.12960000
H      -44.73860000     -30.93030000     -71.47690000
H      -42.70290000     -31.12730000     -75.13410000
H      -44.67990000     -30.21630000     -76.32960000
C      -42.41470000     -31.49190000     -72.40800000
H      -42.55060000     -31.42900000     -71.36750000
H      -41.61130000     -30.78920000     -72.54960000
C      -47.19990000     -29.94120000     -72.27350000
H      -46.98180000     -29.76960000     -71.22290000
H      -47.63700000     -29.12040000     -72.75180000
S      -41.79800000     -33.13810000     -72.92330000
S      -48.43130000     -31.38610000     -72.27450000
C      -42.51010000     -34.37580000     -71.74940000
H      -42.22980000     -35.30790000     -72.25230000
H      -42.04990000     -34.43090000     -70.81190000
C      -47.26450000     -32.82610000     -71.74990000
H      -46.43640000     -32.77310000     -72.47850000
H      -47.74000000     -33.72570000     -72.09810000
C      -46.84780000     -32.76570000     -70.22330000
H      -45.89090000     -32.25890000     -70.01080000
H      -47.57400000     -32.22570000     -69.59890000
C      -44.00910000     -34.22880000     -71.56320000
H      -44.58600000     -34.45690000     -72.52570000
H      -44.28050000     -33.16000000     -71.35940000
C      -44.47870000     -35.17370000     -70.46800000
C      -43.80590000     -36.35530000     -70.19210000
C      -45.68130000     -35.04700000     -69.69510000
H      -42.93220000     -36.64710000     -70.68820000
C      -45.84250000     -36.12810000     -68.80160000
C      -46.79560000     -34.14130000     -69.58120000
C      -47.76720000     -34.61450000     -68.67900000
S      -44.67470000     -37.36380000     -68.96860000
S      -47.32880000     -36.13610000     -67.95730000
H      -48.64600000     -34.06530000     -68.25860000
