40
Properties=species:S:1:pos:R:3 #=T CELL(abcABC):=T 1.889726e+02=T 90.00000=T Traj:=T positionsangstrom=T Step:=T 0=T Bead:=T pbc="F F F"
C      -47.29330000     -32.53390000     -73.18960000
C      -47.99430000     -32.50330000     -71.95910000
C      -47.72870000     -31.53490000     -71.02130000
C      -46.71650000     -30.54870000     -71.39540000
C      -46.05500000     -30.66920000     -72.59830000
C      -46.22070000     -31.72400000     -73.48920000
H      -47.59100000     -33.16670000     -74.05590000
H      -48.42960000     -31.44040000     -70.15160000
H      -45.33070000     -29.90560000     -72.90940000
H      -45.65940000     -31.80670000     -74.45060000
C      -46.51850000     -29.43480000     -70.44770000
H      -47.43900000     -29.15280000     -69.83000000
H      -46.21410000     -28.58170000     -71.10420000
C      -49.17660000     -33.47800000     -71.75780000
H      -50.13460000     -33.02800000     -71.43610000
H      -49.33220000     -34.04950000     -72.61840000
S      -45.22210000     -29.97260000     -69.17370000
S      -48.73190000     -34.68940000     -70.31740000
C      -44.04520000     -30.88950000     -70.17400000
H      -43.93630000     -30.51730000     -71.20890000
H      -43.03980000     -30.66980000     -69.74400000
C      -47.32230000     -35.70380000     -70.90150000
H      -47.15710000     -35.59470000     -71.97140000
H      -47.51700000     -36.81130000     -70.81270000
C      -46.06540000     -35.33730000     -70.14210000
H      -46.04240000     -34.36140000     -69.79890000
H      -46.05830000     -35.88190000     -69.20170000
C      -44.38640000     -32.42280000     -70.18720000
H      -45.39910000     -32.35710000     -70.54800000
H      -44.39880000     -32.84880000     -69.22960000
C      -43.49740000     -33.31190000     -70.99700000
C      -42.21260000     -32.99190000     -71.36590000
C      -43.87600000     -34.69510000     -71.33790000
H      -41.72050000     -32.07470000     -71.04550000
C      -42.80170000     -35.26280000     -72.11500000
C      -44.86590000     -35.70510000     -70.95970000
C      -44.65890000     -36.86190000     -71.60660000
S      -41.39220000     -34.29390000     -72.29380000
S      -43.19510000     -36.88470000     -72.61930000
H      -45.23870000     -37.69710000     -71.47730000
