40
Properties=species:S:1:pos:R:3 #=T CELL(abcABC):=T 1.889726e+02=T 90.00000=T Traj:=T positionsangstrom=T Step:=T 0=T Bead:=T pbc="F F F"
C      -47.89730000     -35.71550000     -72.61010000
C      -48.24170000     -34.40700000     -72.33630000
C      -48.32790000     -33.93750000     -71.02130000
C      -47.98740000     -34.81390000     -70.00040000
C      -47.52630000     -36.08730000     -70.33380000
C      -47.56760000     -36.64360000     -71.60670000
H      -47.92940000     -36.00610000     -73.65010000
H      -48.73210000     -32.89980000     -70.74800000
H      -47.23970000     -36.68350000     -69.50910000
H      -47.36560000     -37.66700000     -71.78830000
C      -48.19880000     -34.40780000     -68.58070000
H      -48.82620000     -35.12490000     -68.04370000
H      -48.77000000     -33.47080000     -68.49380000
C      -48.72830000     -33.56250000     -73.47010000
H      -49.50060000     -34.13100000     -73.96370000
H      -49.07530000     -32.54780000     -73.18140000
S      -46.60550000     -34.36540000     -67.62460000
S      -47.40910000     -33.17120000     -74.70480000
C      -45.72580000     -33.03840000     -68.50120000
H      -46.50760000     -32.32660000     -68.83300000
H      -45.08770000     -32.54400000     -67.84160000
C      -46.04390000     -32.68790000     -73.51180000
H      -46.61170000     -32.53880000     -72.49750000
H      -45.59910000     -31.72560000     -73.89420000
C      -44.92880000     -33.73560000     -73.36240000
H      -45.26650000     -34.46060000     -72.62250000
H      -44.53790000     -34.25440000     -74.31770000
C      -45.04620000     -33.70650000     -69.72210000
H      -45.71270000     -33.65160000     -70.52640000
H      -44.87870000     -34.73890000     -69.46510000
C      -43.71050000     -32.98820000     -70.09370000
C      -42.86610000     -32.41320000     -69.13210000
C      -43.29200000     -32.69870000     -71.48960000
H      -42.84150000     -32.81660000     -68.05300000
C      -42.15880000     -31.88540000     -71.38830000
C      -43.62850000     -32.97850000     -72.88220000
C      -42.82590000     -32.34030000     -73.74470000
S      -41.56120000     -31.57070000     -69.78160000
S      -41.52680000     -31.44700000     -72.96900000
H      -43.00460000     -32.31270000     -74.80320000
