40
Properties=species:S:1:pos:R:3 #=T CELL(abcABC):=T 1.889726e+02=T 90.00000=T Traj:=T positionsangstrom=T Step:=T 0=T Bead:=T pbc="F F F"
C      -44.47640000     -32.31960000     -74.58760000
C      -44.56780000     -31.13960000     -73.83380000
C      -43.59580000     -30.88940000     -72.86130000
C      -42.48900000     -31.78620000     -72.76820000
C      -42.38160000     -32.91480000     -73.62330000
C      -43.39870000     -33.22820000     -74.55630000
H      -45.21020000     -32.40180000     -75.39750000
H      -43.78990000     -29.97730000     -72.26780000
H      -41.49160000     -33.55120000     -73.38560000
H      -43.40340000     -34.08910000     -75.24980000
C      -41.43690000     -31.59930000     -71.65650000
H      -41.08250000     -30.59970000     -71.51280000
H      -40.59610000     -32.19510000     -71.93250000
C      -45.80570000     -30.23320000     -74.12150000
H      -45.56530000     -29.18510000     -74.06560000
H      -46.20740000     -30.46060000     -75.14630000
S      -41.91220000     -32.15020000     -69.94690000
S      -47.09890000     -30.47740000     -72.83390000
C      -43.19690000     -33.53320000     -70.25860000
H      -43.22850000     -33.67650000     -71.35760000
H      -42.72980000     -34.45650000     -69.88760000
C      -46.93920000     -32.26760000     -72.50010000
H      -45.93100000     -32.47500000     -72.10870000
H      -47.11390000     -32.87310000     -73.37940000
C      -47.86140000     -32.65250000     -71.29480000
H      -47.76160000     -31.91990000     -70.52010000
H      -48.86650000     -32.69440000     -71.59410000
C      -44.52190000     -33.15480000     -69.61020000
H      -44.91240000     -32.26660000     -70.03520000
H      -44.30510000     -32.85260000     -68.61610000
C      -45.41950000     -34.38150000     -69.44880000
C      -44.83630000     -35.39180000     -68.68960000
C      -46.67300000     -34.70670000     -69.95450000
H      -43.88650000     -35.31320000     -68.21560000
C      -47.03020000     -35.99760000     -69.56450000
C      -47.68350000     -34.11390000     -70.80860000
C      -48.68410000     -34.98620000     -71.06350000
S      -45.79400000     -36.84930000     -68.63520000
S      -48.43320000     -36.61080000     -70.44120000
H      -49.50400000     -34.82460000     -71.73570000
