40
Properties=species:S:1:pos:R:3 #=T CELL(abcABC):=T 1.889726e+02=T 90.00000=T Traj:=T positionsangstrom=T Step:=T 0=T Bead:=T pbc="F F F"
C      -44.44330000     -34.84510000     -73.34100000
C      -44.85110000     -33.67840000     -74.07590000
C      -46.12020000     -33.18710000     -73.79500000
C      -47.06350000     -33.95600000     -73.06130000
C      -46.61950000     -35.10400000     -72.38920000
C      -45.30040000     -35.54620000     -72.45040000
H      -43.48090000     -35.34680000     -73.56520000
H      -46.33350000     -32.29600000     -74.37600000
H      -47.32440000     -35.77610000     -72.06690000
H      -44.90130000     -36.45610000     -71.95610000
C      -48.48830000     -33.37050000     -72.84400000
H      -49.24080000     -34.15900000     -72.87230000
H      -48.65980000     -32.56730000     -73.61860000
C      -43.86450000     -33.04100000     -74.99710000
H      -43.02070000     -33.68330000     -75.29210000
H      -44.28530000     -32.67520000     -75.93200000
S      -48.58080000     -32.66130000     -71.09680000
S      -43.29920000     -31.43280000     -74.21080000
C      -47.24430000     -31.36310000     -71.16910000
H      -46.53510000     -31.61380000     -71.93500000
H      -47.66830000     -30.40050000     -71.40090000
C      -42.65630000     -31.91890000     -72.49940000
H      -41.64170000     -31.46460000     -72.40540000
H      -42.49140000     -33.04240000     -72.59780000
C      -43.57810000     -31.69180000     -71.26410000
H      -43.07470000     -31.07590000     -70.57130000
H      -44.52920000     -31.19700000     -71.60240000
C      -46.51930000     -31.26460000     -69.74370000
H      -47.30550000     -30.88140000     -68.99250000
H      -45.66000000     -30.61950000     -69.82680000
C      -46.04140000     -32.59590000     -69.25590000
C      -46.77550000     -33.30670000     -68.33800000
C      -44.87420000     -33.32880000     -69.69340000
H      -47.77530000     -33.07700000     -67.83450000
C      -44.75970000     -34.50000000     -69.01650000
C      -43.74960000     -33.06440000     -70.51890000
C      -42.77700000     -33.98620000     -70.43450000
S      -46.04390000     -34.81620000     -67.94380000
S      -43.22330000     -35.36910000     -69.42940000
H      -41.83670000     -33.95220000     -70.94250000
