40
Properties=species:S:1:pos:R:3 #=T CELL(abcABC):=T 1.889726e+02=T 90.00000=T Traj:=T positionsangstrom=T Step:=T 0=T Bead:=T pbc="F F F"
C      -46.03590000     -29.91240000     -72.75680000
C      -45.28870000     -30.72570000     -73.62880000
C      -44.02700000     -31.19900000     -73.16190000
C      -43.56050000     -30.89120000     -71.84420000
C      -44.42570000     -30.18890000     -70.94740000
C      -45.62110000     -29.73390000     -71.52130000
H      -46.90140000     -29.50620000     -73.21980000
H      -43.42790000     -31.80360000     -73.88500000
H      -44.34210000     -30.21320000     -69.88980000
H      -46.24940000     -29.29340000     -70.75530000
C      -42.15300000     -31.39830000     -71.53520000
H      -41.34710000     -30.75460000     -71.91580000
H      -41.97300000     -32.41740000     -72.04110000
C      -45.74640000     -31.17710000     -74.95500000
H      -46.70270000     -30.85820000     -75.28350000
H      -45.08150000     -30.96640000     -75.76190000
S      -41.85090000     -31.79390000     -69.73370000
S      -45.69680000     -33.03520000     -74.94510000
C      -43.23640000     -32.88880000     -69.18920000
H      -42.77050000     -33.47670000     -68.36020000
H      -44.01850000     -32.33340000     -68.73190000
C      -46.98960000     -33.55630000     -73.78780000
H      -47.18730000     -34.61030000     -73.90100000
H      -47.91130000     -32.99440000     -74.04110000
C      -46.59380000     -33.28370000     -72.30870000
H      -45.54280000     -33.02250000     -72.18350000
H      -47.06140000     -32.47830000     -71.89660000
C      -43.67610000     -33.90240000     -70.27350000
H      -42.80260000     -34.44710000     -70.70660000
H      -44.11410000     -33.41370000     -71.14460000
C      -44.76510000     -34.93380000     -69.88790000
C      -44.46020000     -35.82230000     -68.85140000
C      -46.13380000     -35.04570000     -70.32650000
H      -43.44300000     -35.97670000     -68.57100000
C      -46.77090000     -36.11740000     -69.68620000
C      -46.96800000     -34.46050000     -71.36790000
C      -48.22440000     -35.00340000     -71.39970000
S      -45.79670000     -36.91090000     -68.44250000
S      -48.38340000     -36.32120000     -70.21240000
H      -48.92560000     -34.69990000     -72.10410000
