40
Properties=species:S:1:pos:R:3 #=T CELL(abcABC):=T 1.889726e+02=T 90.00000=T Traj:=T positionsangstrom=T Step:=T 0=T Bead:=T pbc="F F F"
C      -45.23110000     -35.11980000     -73.23310000
C      -45.31520000     -33.96740000     -73.95750000
C      -46.40760000     -33.06270000     -73.69550000
C      -47.40310000     -33.41610000     -72.75030000
C      -47.22570000     -34.62310000     -72.05180000
C      -46.16900000     -35.41720000     -72.20340000
H      -44.43890000     -35.91530000     -73.49560000
H      -46.50730000     -32.12840000     -74.16730000
H      -48.02270000     -34.88140000     -71.33920000
H      -46.11030000     -36.32570000     -71.52230000
C      -48.52080000     -32.47130000     -72.42190000
H      -49.37770000     -33.19810000     -72.22930000
H      -48.71560000     -31.82780000     -73.23730000
C      -44.35770000     -33.60200000     -75.07680000
H      -43.82620000     -34.59530000     -75.24910000
H      -44.87710000     -33.28860000     -75.99970000
S      -48.41610000     -31.41330000     -70.95670000
S      -43.16260000     -32.32560000     -74.74580000
C      -46.70020000     -30.80700000     -70.99110000
H      -46.18780000     -31.25190000     -71.86650000
H      -46.79460000     -29.75930000     -71.22670000
C      -42.43260000     -32.80200000     -73.03380000
H      -41.45770000     -32.30170000     -72.95930000
H      -42.18580000     -33.84090000     -73.04610000
C      -43.33780000     -32.42100000     -71.81150000
H      -42.96690000     -31.48630000     -71.31680000
H      -44.34200000     -32.11190000     -72.16750000
C      -45.83790000     -31.13680000     -69.74710000
H      -46.18650000     -30.47770000     -68.85570000
H      -44.82830000     -30.70610000     -69.94690000
C      -45.72170000     -32.54290000     -69.29450000
C      -46.52050000     -33.08860000     -68.33200000
C      -44.61520000     -33.43280000     -69.75970000
H      -47.38050000     -32.60390000     -67.80930000
C      -44.63610000     -34.58540000     -68.95590000
C      -43.53020000     -33.45900000     -70.74690000
C      -42.74500000     -34.54790000     -70.55760000
S      -45.80900000     -34.52690000     -67.69290000
S      -43.38090000     -35.69340000     -69.39210000
H      -41.91310000     -34.78150000     -71.13650000
