40
Properties=species:S:1:pos:R:3 #=T CELL(abcABC):=T 1.889726e+02=T 90.00000=T Traj:=T positionsangstrom=T Step:=T 0=T Bead:=T pbc="F F F"
C      -47.88100000     -35.48020000     -72.70570000
C      -48.34430000     -34.26370000     -72.23140000
C      -48.50660000     -34.05460000     -70.88940000
C      -47.96200000     -34.93170000     -69.94910000
C      -47.48780000     -36.19260000     -70.40880000
C      -47.40240000     -36.46920000     -71.80690000
H      -47.88700000     -35.64030000     -73.80010000
H      -48.93770000     -33.08790000     -70.49780000
H      -47.10650000     -36.95810000     -69.64170000
H      -47.02430000     -37.42590000     -72.08990000
C      -48.16350000     -34.65600000     -68.46040000
H      -48.34850000     -35.51590000     -67.79140000
H      -48.97920000     -33.97290000     -68.27250000
C      -48.84520000     -33.22460000     -73.20750000
H      -49.68700000     -33.49720000     -73.78310000
H      -48.99470000     -32.32490000     -72.54300000
S      -46.75280000     -33.89100000     -67.60620000
S      -47.46570000     -32.77050000     -74.41700000
C      -45.90220000     -32.85190000     -68.91370000
H      -46.66860000     -32.29070000     -69.50500000
H      -45.39530000     -32.14290000     -68.30880000
C      -45.99820000     -32.45240000     -73.35850000
H      -46.34140000     -32.04890000     -72.38070000
H      -45.47780000     -31.76120000     -73.93980000
C      -45.11280000     -33.72360000     -73.21480000
H      -45.48610000     -34.45290000     -72.49450000
H      -45.07090000     -34.27160000     -74.19280000
C      -45.02810000     -33.67450000     -69.74440000
H      -45.50990000     -33.94310000     -70.69190000
H      -44.81370000     -34.66750000     -69.21660000
C      -43.70770000     -32.89490000     -70.14560000
C      -42.90450000     -32.28630000     -69.17290000
C      -43.23160000     -32.76740000     -71.47150000
H      -43.00220000     -32.13970000     -68.12150000
C      -42.02680000     -32.07040000     -71.53390000
C      -43.68620000     -33.19940000     -72.77840000
C      -42.78950000     -32.95540000     -73.76540000
S      -41.45770000     -31.71520000     -69.91090000
S      -41.31680000     -32.15420000     -73.16260000
H      -42.91830000     -33.29760000     -74.78040000
