40
Properties=species:S:1:pos:R:3 #=T CELL(abcABC):=T 1.889726e+02=T 90.00000=T Traj:=T positionsangstrom=T Step:=T 0=T Bead:=T pbc="F F F"
C      -45.10720000     -35.23810000     -73.59280000
C      -45.25950000     -33.96910000     -74.26170000
C      -46.34440000     -33.15840000     -73.90850000
C      -47.22940000     -33.60070000     -72.89880000
C      -47.15990000     -34.86830000     -72.32160000
C      -46.02500000     -35.64820000     -72.65890000
H      -44.22300000     -35.89610000     -73.75350000
H      -46.45730000     -32.23030000     -74.45550000
H      -47.73860000     -35.02880000     -71.39340000
H      -45.96120000     -36.68730000     -72.33870000
C      -48.48400000     -32.75230000     -72.56780000
H      -49.37100000     -33.44260000     -72.60680000
H      -48.53920000     -32.05390000     -73.44940000
C      -44.25260000     -33.45260000     -75.29210000
H      -43.60540000     -34.30390000     -75.58110000
H      -44.76740000     -33.07590000     -76.21660000
S      -48.53430000     -31.82160000     -70.99150000
S      -43.23740000     -32.02530000     -74.50970000
C      -46.85560000     -31.06390000     -71.06100000
H      -46.20570000     -31.47910000     -71.79600000
H      -46.93690000     -30.03050000     -71.31430000
C      -42.71070000     -32.81580000     -72.94260000
H      -41.62260000     -32.62050000     -72.88200000
H      -42.68450000     -33.91590000     -73.08000000
C      -43.52600000     -32.36170000     -71.74450000
H      -43.18720000     -31.40600000     -71.25760000
H      -44.56850000     -32.17430000     -72.10850000
C      -46.01560000     -31.12330000     -69.71810000
H      -46.50990000     -30.53460000     -68.98690000
H      -45.12500000     -30.58330000     -69.85890000
C      -45.77590000     -32.53440000     -69.26780000
C      -46.47630000     -32.99510000     -68.19430000
C      -44.67930000     -33.35120000     -69.61950000
H      -47.22880000     -32.46550000     -67.58270000
C      -44.50780000     -34.40710000     -68.75250000
C      -43.66450000     -33.37500000     -70.66510000
C      -42.69350000     -34.35910000     -70.50110000
S      -45.77590000     -34.47100000     -67.54820000
S      -43.18170000     -35.39650000     -69.16080000
H      -41.92370000     -34.53520000     -71.21060000
