40
Properties=species:S:1:pos:R:3 #=T CELL(abcABC):=T 1.889726e+02=T 90.00000=T Traj:=T positionsangstrom=T Step:=T 0=T Bead:=T pbc="F F F"
C      -46.07740000     -35.96960000     -72.18770000
C      -45.67590000     -34.92290000     -73.07280000
C      -46.47290000     -33.75640000     -73.16410000
C      -47.59900000     -33.49660000     -72.31520000
C      -47.90760000     -34.51200000     -71.40590000
C      -47.19030000     -35.70860000     -71.36490000
H      -45.59490000     -36.96650000     -72.16040000
H      -46.08240000     -32.87290000     -73.62880000
H      -48.83210000     -34.40110000     -70.89970000
H      -47.56560000     -36.43520000     -70.65730000
C      -48.26880000     -32.14520000     -72.49280000
H      -49.29600000     -32.29610000     -72.30640000
H      -48.30420000     -31.69330000     -73.48440000
C      -44.40430000     -34.94260000     -73.91490000
H      -43.55290000     -35.52460000     -73.60030000
H      -44.67440000     -35.40040000     -74.89850000
S      -47.78130000     -30.79500000     -71.27850000
S      -43.79730000     -33.31500000     -74.53990000
C      -45.95000000     -30.46670000     -71.40210000
H      -45.58900000     -31.09150000     -72.20110000
H      -45.93870000     -29.42830000     -71.82060000
C      -42.45860000     -32.81260000     -73.35990000
H      -41.81760000     -32.09340000     -73.90090000
H      -41.79110000     -33.71430000     -73.15350000
C      -42.87010000     -32.19690000     -72.04630000
H      -41.93520000     -31.78750000     -71.57370000
H      -43.52180000     -31.37840000     -72.08720000
C      -45.13650000     -30.55230000     -70.04640000
H      -45.47260000     -29.83110000     -69.34510000
H      -44.13430000     -30.18480000     -70.26800000
C      -45.18770000     -31.98540000     -69.56420000
C      -46.07350000     -32.37680000     -68.57620000
C      -44.42830000     -33.14170000     -70.06420000
H      -46.72900000     -31.65020000     -68.03110000
C      -44.70010000     -34.35760000     -69.38770000
C      -43.33960000     -33.22490000     -70.98180000
C      -42.71060000     -34.44210000     -70.96520000
S      -45.88730000     -34.02810000     -68.12020000
S      -43.50000000     -35.62230000     -69.77500000
H      -42.05840000     -35.00270000     -71.59450000
