40
Properties=species:S:1:pos:R:3 #=T CELL(abcABC):=T 1.889726e+02=T 90.00000=T Traj:=T positionsangstrom=T Step:=T 0=T Bead:=T pbc="F F F"
C      -49.22620000     -35.54370000     -72.36680000
C      -48.56950000     -34.34000000     -72.73780000
C      -48.22230000     -33.42880000     -71.79130000
C      -48.71010000     -33.54970000     -70.49190000
C      -49.24090000     -34.78060000     -70.07100000
C      -49.52930000     -35.79630000     -71.01090000
H      -49.60020000     -36.28120000     -73.08260000
H      -47.77520000     -32.44380000     -72.00390000
H      -49.64750000     -35.06090000     -69.08150000
H      -49.79280000     -36.73360000     -70.67230000
C      -48.46050000     -32.49110000     -69.46570000
H      -49.34290000     -32.19670000     -68.89050000
H      -47.96230000     -31.58100000     -69.84630000
C      -48.06420000     -34.15160000     -74.21450000
H      -48.82650000     -34.57640000     -74.81880000
H      -47.98920000     -33.17510000     -74.59120000
S      -47.18370000     -33.02240000     -68.11120000
S      -46.49020000     -35.12020000     -74.53260000
C      -45.53060000     -32.62120000     -68.81950000
H      -45.48730000     -31.91800000     -69.61470000
H      -44.98930000     -32.18030000     -68.01250000
C      -45.16970000     -33.89340000     -74.30590000
H      -45.30420000     -33.05820000     -74.94580000
H      -44.25790000     -34.31400000     -74.69660000
C      -45.02380000     -33.39690000     -72.92100000
H      -45.84370000     -32.60560000     -72.67390000
H      -45.16620000     -34.30550000     -72.24530000
C      -44.77740000     -33.81300000     -69.30580000
H      -45.46730000     -34.25050000     -70.06240000
H      -44.83590000     -34.54420000     -68.49000000
C      -43.38850000     -33.41940000     -69.80390000
C      -42.40460000     -33.15490000     -68.86020000
C      -43.05880000     -32.93320000     -71.12870000
H      -42.60230000     -33.33100000     -67.86490000
C      -41.81840000     -32.26670000     -71.14500000
C      -43.67310000     -32.84700000     -72.52920000
C      -42.85210000     -32.09010000     -73.33730000
S      -41.02400000     -32.32400000     -69.55110000
S      -41.26090000     -31.57550000     -72.57250000
H      -43.01760000     -32.08390000     -74.39790000
