40
Properties=species:S:1:pos:R:3 #=T CELL(abcABC):=T 1.889726e+02=T 90.00000=T Traj:=T positionsangstrom=T Step:=T 0=T Bead:=T pbc="F F F"
C      -45.89830000     -35.81360000     -72.28750000
C      -45.44240000     -34.64870000     -72.95580000
C      -46.20010000     -33.42090000     -72.88250000
C      -47.41740000     -33.38820000     -72.22260000
C      -47.81370000     -34.49850000     -71.46290000
C      -47.01430000     -35.65530000     -71.52320000
H      -45.26530000     -36.73800000     -72.24500000
H      -46.01040000     -32.68680000     -73.67110000
H      -48.62690000     -34.46930000     -70.71310000
H      -47.32490000     -36.46160000     -70.81130000
C      -48.25510000     -32.18110000     -72.47620000
H      -49.31440000     -32.57530000     -72.48660000
H      -47.97310000     -31.59380000     -73.38060000
C      -44.41760000     -34.85050000     -74.08460000
H      -43.71710000     -35.55140000     -73.57600000
H      -44.93080000     -35.30950000     -74.89990000
S      -48.04800000     -30.83530000     -71.07610000
S      -43.60670000     -33.36940000     -74.72460000
C      -46.23800000     -30.43720000     -71.45410000
H      -45.82670000     -30.94230000     -72.32450000
H      -46.14410000     -29.33280000     -71.61750000
C      -42.31830000     -32.89440000     -73.43740000
H      -41.71280000     -32.16470000     -73.94130000
H      -41.70920000     -33.76460000     -73.18930000
C      -42.96600000     -32.36330000     -72.14720000
H      -42.10720000     -31.88820000     -71.64900000
H      -43.79360000     -31.69440000     -72.43130000
C      -45.38460000     -30.60130000     -70.18380000
H      -45.82050000     -29.94750000     -69.46720000
H      -44.36120000     -30.40020000     -70.41780000
C      -45.29150000     -32.01020000     -69.64950000
C      -46.13170000     -32.45500000     -68.65480000
C      -44.33860000     -33.06850000     -70.00060000
H      -46.83900000     -31.75880000     -68.24810000
C      -44.57320000     -34.23660000     -69.22520000
C      -43.36580000     -33.34580000     -71.03070000
C      -42.83210000     -34.58240000     -70.89040000
S      -45.88730000     -34.10230000     -68.14990000
S      -43.60800000     -35.64600000     -69.63310000
H      -42.14640000     -35.01680000     -71.61960000
