40
Properties=species:S:1:pos:R:3 #=T CELL(abcABC):=T 1.889726e+02=T 90.00000=T Traj:=T positionsangstrom=T Step:=T 0=T Bead:=T pbc="F F F"
C      -45.92640000     -30.08080000     -72.84300000
C      -45.23470000     -31.00520000     -73.58530000
C      -43.99930000     -31.38040000     -73.13760000
C      -43.48160000     -30.96550000     -71.88000000
C      -44.31180000     -30.20870000     -71.04510000
C      -45.49330000     -29.64060000     -71.52500000
H      -46.96890000     -29.67490000     -73.14730000
H      -43.34650000     -31.95460000     -73.79200000
H      -44.10070000     -30.14760000     -69.91080000
H      -46.04230000     -28.86310000     -70.93680000
C      -42.10270000     -31.27490000     -71.49370000
H      -41.40160000     -30.42400000     -71.67560000
H      -41.75060000     -32.16520000     -71.99670000
C      -45.74730000     -31.31530000     -75.03680000
H      -46.38370000     -30.50820000     -75.35490000
H      -44.96430000     -31.26560000     -75.75130000
S      -41.81370000     -31.59890000     -69.65650000
S      -46.52020000     -32.97830000     -75.12990000
C      -42.75040000     -33.14850000     -69.20310000
H      -41.95340000     -33.87650000     -68.99510000
H      -43.32330000     -32.78700000     -68.31740000
C      -47.30990000     -33.24020000     -73.44140000
H      -47.95830000     -34.04860000     -73.68680000
H      -47.93990000     -32.41740000     -73.09370000
C      -46.37560000     -33.59010000     -72.31310000
H      -45.48610000     -34.10550000     -72.73580000
H      -45.98640000     -32.64830000     -71.84980000
C      -43.69170000     -33.63540000     -70.28700000
H      -43.13870000     -33.93530000     -71.13830000
H      -44.28750000     -32.79190000     -70.60640000
C      -44.66730000     -34.80060000     -69.89640000
C      -44.31770000     -35.82930000     -69.02180000
C      -46.08890000     -35.12320000     -70.32870000
H      -43.41470000     -35.82150000     -68.43670000
C      -46.72970000     -36.07470000     -69.56030000
C      -46.90890000     -34.50310000     -71.33440000
C      -48.13290000     -35.14640000     -71.41760000
S      -45.64830000     -36.88210000     -68.48550000
S      -48.34620000     -36.35760000     -70.11990000
H      -49.00540000     -35.00000000     -72.05470000
