40
Properties=species:S:1:pos:R:3 #=T CELL(abcABC):=T 1.889726e+02=T 90.00000=T Traj:=T positionsangstrom=T Step:=T 0=T Bead:=T pbc="F F F"
C      -43.35930000     -31.20980000     -74.06300000
C      -44.68880000     -30.95290000     -73.51460000
C      -44.77260000     -30.62940000     -72.16480000
C      -43.64160000     -30.49380000     -71.31520000
C      -42.37050000     -30.81590000     -71.91650000
C      -42.27200000     -31.19250000     -73.20800000
H      -43.16790000     -31.56060000     -75.05230000
H      -45.79790000     -30.49980000     -71.75210000
H      -41.56780000     -30.96240000     -71.22840000
H      -41.33600000     -31.61860000     -73.56290000
C      -43.72240000     -30.15850000     -69.90080000
H      -44.70200000     -29.95600000     -69.57310000
H      -43.08230000     -29.33020000     -69.61370000
C      -45.89750000     -31.13610000     -74.41730000
H      -45.87790000     -30.41730000     -75.29970000
H      -45.82540000     -32.02140000     -74.90210000
S      -42.93120000     -31.56320000     -68.94220000
S      -47.45710000     -31.00240000     -73.60310000
C      -43.77500000     -33.13010000     -69.53720000
H      -44.17630000     -32.80720000     -70.56470000
H      -43.04560000     -33.97380000     -69.62840000
C      -47.56120000     -32.69730000     -72.89620000
H      -47.26980000     -33.38160000     -73.68940000
H      -48.64000000     -32.84300000     -72.64520000
C      -46.72410000     -33.13890000     -71.78170000
H      -45.64800000     -33.18650000     -72.10740000
H      -46.76940000     -32.43450000     -70.93580000
C      -45.08640000     -33.61190000     -68.78320000
H      -45.95590000     -32.96860000     -68.90910000
H      -44.77280000     -33.58950000     -67.68140000
C      -45.39660000     -35.01510000     -69.27670000
C      -44.76580000     -36.09550000     -68.74610000
C      -46.25070000     -35.33240000     -70.40960000
H      -44.04990000     -36.13750000     -67.94690000
C      -46.26060000     -36.71980000     -70.64710000
C      -47.00530000     -34.59260000     -71.41410000
C      -47.72800000     -35.41660000     -72.22070000
S      -45.21740000     -37.61230000     -69.61370000
S      -47.38550000     -37.10520000     -71.82680000
H      -48.41810000     -35.32920000     -73.04820000
