40
Properties=species:S:1:pos:R:3 #=T CELL(abcABC):=T 1.889726e+02=T 90.00000=T Traj:=T positionsangstrom=T Step:=T 0=T Bead:=T pbc="F F F"
C      -46.19970000     -33.75680000     -75.57250000
C      -46.46930000     -32.77300000     -74.58240000
C      -45.41520000     -32.01110000     -74.00910000
C      -44.07110000     -32.36800000     -74.36860000
C      -43.81190000     -33.27210000     -75.43010000
C      -44.90040000     -33.99400000     -75.98210000
H      -47.09030000     -34.23010000     -75.99950000
H      -45.48620000     -31.09270000     -73.31350000
H      -42.75750000     -33.58120000     -75.68270000
H      -44.64570000     -34.85890000     -76.57760000
C      -42.95320000     -31.64600000     -73.68460000
H      -43.30630000     -30.94940000     -72.88240000
H      -42.29770000     -31.12230000     -74.34690000
C      -47.90080000     -32.71320000     -74.09430000
H      -47.95820000     -31.87790000     -73.36310000
H      -48.60650000     -32.50360000     -74.87740000
S      -41.77260000     -32.74660000     -72.75850000
S      -48.43660000     -34.30300000     -73.32600000
C      -42.51670000     -32.68160000     -71.11020000
H      -41.72680000     -32.97820000     -70.39550000
H      -42.84950000     -31.62620000     -71.02490000
C      -47.14620000     -34.43410000     -72.02550000
H      -46.20180000     -34.28510000     -72.51220000
H      -47.23740000     -35.43740000     -71.60500000
C      -47.26450000     -33.30820000     -70.98560000
H      -46.76080000     -32.43170000     -71.42650000
H      -48.32190000     -33.01770000     -70.89390000
C      -43.68170000     -33.71570000     -70.97350000
H      -43.38350000     -34.71360000     -71.45520000
H      -44.52940000     -33.47080000     -71.67020000
C      -44.15370000     -33.85560000     -69.52000000
C      -43.20280000     -34.06370000     -68.52020000
C      -45.49740000     -33.57030000     -69.00810000
H      -42.12400000     -34.16270000     -68.61440000
C      -45.52510000     -33.66800000     -67.59260000
C      -46.80730000     -33.44320000     -69.53900000
C      -47.78240000     -33.27650000     -68.59310000
S      -43.98970000     -34.04310000     -66.88620000
S      -47.16100000     -33.47000000     -66.95980000
H      -48.80270000     -33.20110000     -68.75760000
