40
Properties=species:S:1:pos:R:3 #=T CELL(abcABC):=T 1.889726e+02=T 90.00000=T Traj:=T positionsangstrom=T Step:=T 0=T Bead:=T pbc="F F F"
C      -45.85630000     -33.94090000     -75.44930000
C      -46.06590000     -32.69530000     -74.80050000
C      -45.07260000     -31.97620000     -74.26440000
C      -43.73290000     -32.39310000     -74.36550000
C      -43.49580000     -33.58580000     -75.04310000
C      -44.50620000     -34.35050000     -75.57240000
H      -46.66320000     -34.55900000     -75.84870000
H      -45.34840000     -31.13150000     -73.64200000
H      -42.47150000     -33.89120000     -75.07570000
H      -44.26870000     -35.25250000     -76.24080000
C      -42.59140000     -31.74370000     -73.60180000
H      -42.99310000     -31.02120000     -72.85780000
H      -41.91370000     -31.17320000     -74.17770000
C      -47.46050000     -32.23830000     -74.53890000
H      -47.43770000     -31.17220000     -74.18220000
H      -48.01160000     -32.35450000     -75.47570000
S      -41.54100000     -32.90980000     -72.61970000
S      -48.43660000     -33.34890000     -73.34240000
C      -42.28340000     -33.01390000     -70.90320000
H      -41.67130000     -33.84200000     -70.44920000
H      -42.09460000     -32.09300000     -70.40350000
C      -47.31550000     -33.63380000     -71.97300000
H      -46.25420000     -33.74550000     -72.29300000
H      -47.52300000     -34.61370000     -71.60960000
C      -47.55050000     -32.67320000     -70.84930000
H      -47.13140000     -31.65650000     -71.05260000
H      -48.56680000     -32.53150000     -70.72480000
C      -43.83880000     -33.19050000     -70.93310000
H      -44.06920000     -33.86370000     -71.79230000
H      -44.38140000     -32.25540000     -71.15460000
C      -44.38320000     -33.69390000     -69.54670000
C      -43.52080000     -34.21510000     -68.56810000
C      -45.77610000     -33.65790000     -69.09240000
H      -42.49770000     -34.52730000     -68.74920000
C      -45.86840000     -34.09450000     -67.73500000
C      -47.04020000     -33.17570000     -69.51900000
C      -48.02100000     -33.33610000     -68.50330000
S      -44.37060000     -34.67080000     -67.12220000
S      -47.41020000     -34.06930000     -67.00180000
H      -49.07330000     -33.22130000     -68.68250000
