40
Properties=species:S:1:pos:R:3 #=T CELL(abcABC):=T 1.889726e+02=T 90.00000=T Traj:=T positionsangstrom=T Step:=T 0=T Bead:=T pbc="F F F"
C      -45.84770000     -35.66910000     -73.51550000
C      -44.72330000     -35.05570000     -74.03650000
C      -43.58330000     -35.28960000     -73.35590000
C      -43.45240000     -36.27010000     -72.34200000
C      -44.68280000     -36.89620000     -71.90600000
C      -45.89030000     -36.59000000     -72.52200000
H      -46.81530000     -35.30870000     -73.96840000
H      -42.59210000     -34.81400000     -73.61830000
H      -44.75880000     -37.77920000     -71.26720000
H      -46.89290000     -37.01540000     -72.22920000
C      -42.19470000     -36.39730000     -71.66070000
H      -41.30970000     -36.30680000     -72.31950000
H      -42.19800000     -37.37720000     -71.20100000
C      -44.72770000     -34.14160000     -75.20930000
H      -43.88460000     -34.28830000     -75.91100000
H      -45.57930000     -34.53200000     -75.80050000
S      -41.90060000     -35.09780000     -70.34480000
S      -44.81320000     -32.30070000     -74.79290000
C      -43.60580000     -34.66130000     -69.61910000
H      -44.15750000     -35.56650000     -69.62330000
H      -43.23060000     -34.39840000     -68.63090000
C      -46.03330000     -32.13720000     -73.42660000
H      -46.21690000     -33.07330000     -72.83110000
H      -47.05090000     -31.87140000     -73.81080000
C      -45.55140000     -31.09320000     -72.44830000
H      -44.52560000     -31.12220000     -72.19090000
H      -45.63940000     -30.12510000     -73.02680000
C      -44.36080000     -33.53750000     -70.33480000
H      -44.61820000     -33.87180000     -71.35950000
H      -43.49550000     -32.79700000     -70.52070000
C      -45.48580000     -32.91910000     -69.53920000
C      -45.84630000     -33.41770000     -68.32300000
C      -46.37630000     -31.90710000     -70.03950000
H      -45.35630000     -34.29010000     -67.81990000
C      -47.27540000     -31.50900000     -69.04510000
C      -46.45650000     -31.02930000     -71.23850000
C      -47.49910000     -30.17010000     -71.15950000
S      -47.19790000     -32.51800000     -67.63210000
S      -48.33380000     -30.26720000     -69.58900000
H      -47.92680000     -29.48380000     -71.95990000
