40
Properties=species:S:1:pos:R:3 #=T CELL(abcABC):=T 1.889726e+02=T 90.00000=T Traj:=T positionsangstrom=T Step:=T 0=T Bead:=T pbc="F F F"
C      -45.85720000     -33.73040000     -75.40200000
C      -45.98550000     -32.59910000     -74.62140000
C      -44.86580000     -31.94210000     -74.15370000
C      -43.62540000     -32.49830000     -74.28740000
C      -43.50500000     -33.73770000     -74.93060000
C      -44.61260000     -34.39170000     -75.51360000
H      -46.76960000     -34.22990000     -75.77280000
H      -44.95090000     -30.94520000     -73.68530000
H      -42.48890000     -34.19110000     -74.97790000
H      -44.53890000     -35.33430000     -75.97810000
C      -42.46190000     -31.73940000     -73.60090000
H      -42.90090000     -30.88090000     -73.02610000
H      -41.68510000     -31.38130000     -74.31540000
C      -47.37540000     -32.07120000     -74.45110000
H      -47.41360000     -31.12300000     -73.85810000
H      -47.79510000     -31.91720000     -75.43520000
S      -41.57590000     -32.93180000     -72.50540000
S      -48.44920000     -33.21750000     -73.53360000
C      -42.57730000     -32.90120000     -70.96310000
H      -42.08990000     -33.54320000     -70.25660000
H      -42.53010000     -31.91280000     -70.52820000
C      -47.42200000     -33.66280000     -72.03680000
H      -46.42250000     -33.95470000     -72.38400000
H      -47.95160000     -34.55540000     -71.56790000
C      -47.24220000     -32.54840000     -70.93110000
H      -46.33480000     -31.90440000     -71.10120000
H      -48.15680000     -31.92820000     -70.94420000
C      -43.98840000     -33.50480000     -70.97440000
H      -44.06480000     -34.47260000     -71.50250000
H      -44.70330000     -32.78940000     -71.53100000
C      -44.41430000     -33.82520000     -69.53820000
C      -43.53180000     -34.21260000     -68.55820000
C      -45.79340000     -33.75580000     -69.03650000
H      -42.42800000     -34.39490000     -68.74670000
C      -45.89230000     -34.24440000     -67.73720000
C      -47.00570000     -33.21500000     -69.60980000
C      -47.94750000     -33.28520000     -68.57790000
S      -44.32540000     -34.70870000     -67.11590000
S      -47.51570000     -34.06140000     -67.06050000
H      -49.00620000     -32.90610000     -68.67430000
