40
Properties=species:S:1:pos:R:3 #=T CELL(abcABC):=T 1.889726e+02=T 90.00000=T Traj:=T positionsangstrom=T Step:=T 0=T Bead:=T pbc="F F F"
C      -45.92320000     -33.77560000     -75.68210000
C      -46.22830000     -32.86180000     -74.67380000
C      -45.16030000     -32.18320000     -74.06170000
C      -43.82790000     -32.54960000     -74.31100000
C      -43.51730000     -33.46400000     -75.30320000
C      -44.59270000     -34.10340000     -75.95820000
H      -46.79080000     -34.37980000     -76.01990000
H      -45.33840000     -31.45440000     -73.24380000
H      -42.44100000     -33.54270000     -75.56690000
H      -44.42100000     -34.80350000     -76.80960000
C      -42.84440000     -31.76510000     -73.54070000
H      -43.35880000     -30.92540000     -72.96800000
H      -42.30580000     -31.19410000     -74.30720000
C      -47.68480000     -32.57410000     -74.32410000
H      -47.63930000     -31.52820000     -73.88970000
H      -48.26750000     -32.64250000     -75.18830000
S      -41.56920000     -32.64840000     -72.55770000
S      -48.53240000     -33.78220000     -73.22900000
C      -42.27820000     -33.06530000     -70.86560000
H      -41.88060000     -34.04790000     -70.58920000
H      -41.79720000     -32.29810000     -70.23050000
C      -47.50210000     -34.06410000     -71.74210000
H      -46.59610000     -34.65430000     -71.94890000
H      -48.13350000     -34.75580000     -71.27440000
C      -47.19180000     -32.70370000     -71.02370000
H      -46.36370000     -32.18780000     -71.52590000
H      -48.01140000     -32.08830000     -71.01620000
C      -43.76570000     -33.11740000     -70.88920000
H      -44.06480000     -33.85760000     -71.65090000
H      -44.16780000     -32.21410000     -71.19260000
C      -44.27780000     -33.55280000     -69.52780000
C      -43.40520000     -34.06240000     -68.54490000
C      -45.64930000     -33.55350000     -69.03740000
H      -42.27980000     -34.03550000     -68.51180000
C      -45.75530000     -34.07290000     -67.75440000
C      -46.91930000     -33.05020000     -69.54410000
C      -47.95600000     -33.23110000     -68.64120000
S      -44.19470000     -34.50020000     -67.07950000
S      -47.41100000     -33.99530000     -67.14420000
H      -48.94750000     -32.91880000     -68.90040000
