40
Properties=species:S:1:pos:R:3 #=T CELL(abcABC):=T 1.889726e+02=T 90.00000=T Traj:=T positionsangstrom=T Step:=T 0=T Bead:=T pbc="F F F"
C      -45.20080000     -31.57220000     -74.81190000
C      -46.22770000     -31.22220000     -73.88990000
C      -45.76930000     -30.61660000     -72.70680000
C      -44.46170000     -30.57350000     -72.26760000
C      -43.40470000     -30.92980000     -73.23610000
C      -43.82740000     -31.46310000     -74.47330000
H      -45.54560000     -32.09370000     -75.67700000
H      -46.55630000     -30.14690000     -72.08370000
H      -42.37210000     -30.87010000     -72.89060000
H      -43.10260000     -31.72910000     -75.18900000
C      -44.04510000     -29.88460000     -71.00210000
H      -44.95170000     -29.70020000     -70.33640000
H      -43.59350000     -28.92880000     -71.22380000
C      -47.68150000     -31.28190000     -74.27670000
H      -48.24720000     -30.36650000     -74.49470000
H      -47.81120000     -32.00980000     -75.07720000
S      -42.66700000     -30.82620000     -70.10040000
S      -48.71330000     -31.99390000     -72.86900000
C      -43.21680000     -32.60410000     -70.05590000
H      -43.38190000     -32.89360000     -71.14120000
H      -42.37430000     -33.10700000     -69.62800000
C      -47.92190000     -33.69620000     -72.64800000
H      -47.56750000     -33.94760000     -73.68390000
H      -48.72660000     -34.36990000     -72.48680000
C      -46.77780000     -33.62350000     -71.60160000
H      -46.12600000     -32.84890000     -72.02410000
H      -47.14510000     -33.03160000     -70.76790000
C      -44.47130000     -32.81470000     -69.25810000
H      -45.33950000     -32.45260000     -69.74730000
H      -44.28940000     -32.32120000     -68.33270000
C      -44.55580000     -34.35030000     -69.08800000
C      -43.81960000     -35.03720000     -68.24240000
C      -45.32330000     -35.19250000     -70.04610000
H      -43.14410000     -34.59670000     -67.52260000
C      -45.08600000     -36.56740000     -69.78300000
C      -46.20410000     -34.94150000     -71.15690000
C      -46.69100000     -36.11160000     -71.71180000
S      -44.06270000     -36.88340000     -68.41780000
S      -46.03360000     -37.57290000     -70.87510000
H      -47.41470000     -36.11240000     -72.48740000
