40
Properties=species:S:1:pos:R:3 #=T CELL(abcABC):=T 1.889726e+02=T 90.00000=T Traj:=T positionsangstrom=T Step:=T 0=T Bead:=T pbc="F F F"
C      -45.06580000     -32.39690000     -74.98080000
C      -46.16210000     -31.84850000     -74.24760000
C      -45.83710000     -30.97460000     -73.20980000
C      -44.51910000     -30.47740000     -73.04530000
C      -43.49140000     -31.06120000     -73.72700000
C      -43.78680000     -31.96160000     -74.73800000
H      -45.19070000     -33.24580000     -75.66360000
H      -46.64690000     -30.62500000     -72.66160000
H      -42.45730000     -30.86630000     -73.46930000
H      -42.91760000     -32.33660000     -75.39320000
C      -44.24710000     -29.53060000     -71.82500000
H      -45.17190000     -29.12540000     -71.47390000
H      -43.65500000     -28.68890000     -72.12400000
C      -47.62740000     -32.27030000     -74.52580000
H      -48.03690000     -31.44340000     -75.14710000
H      -47.68510000     -33.14480000     -75.02980000
S      -43.22310000     -30.36180000     -70.48320000
S      -48.73500000     -32.41670000     -73.05660000
C      -43.66880000     -32.10090000     -70.53540000
H      -44.17860000     -32.37620000     -71.44510000
H      -42.77670000     -32.67160000     -70.57840000
C      -48.04100000     -34.04310000     -72.45120000
H      -47.51460000     -34.41440000     -73.28550000
H      -48.87760000     -34.68360000     -72.16890000
C      -47.06380000     -33.89880000     -71.29870000
H      -46.32470000     -33.20060000     -71.61620000
H      -47.58550000     -33.17780000     -70.56900000
C      -44.38710000     -32.46560000     -69.27390000
H      -45.37170000     -31.96800000     -69.41950000
H      -43.99200000     -31.90980000     -68.43630000
C      -44.40380000     -34.00820000     -69.04130000
C      -43.41350000     -34.46500000     -68.31190000
C      -45.26700000     -35.00900000     -69.71510000
H      -42.67500000     -33.87280000     -67.91860000
C      -44.83820000     -36.26820000     -69.25300000
C      -46.36310000     -35.05660000     -70.62120000
C      -46.88160000     -36.34730000     -70.78170000
S      -43.45350000     -36.25850000     -68.20850000
S      -45.88970000     -37.50980000     -69.92030000
H      -47.68420000     -36.71150000     -71.46890000
