40
Properties=species:S:1:pos:R:3 #=T CELL(abcABC):=T 1.889726e+02=T 90.00000=T Traj:=T positionsangstrom=T Step:=T 0=T Bead:=T pbc="F F F"
C      -46.05470000     -29.95580000     -72.73870000
C      -45.33520000     -30.76970000     -73.66520000
C      -44.02880000     -31.21260000     -73.20310000
C      -43.41600000     -30.65760000     -72.10760000
C      -44.13030000     -29.71030000     -71.31430000
C      -45.48530000     -29.50630000     -71.55890000
H      -47.05100000     -29.64420000     -73.08770000
H      -43.45290000     -31.85680000     -73.83080000
H      -43.53990000     -29.50810000     -70.37380000
H      -46.12380000     -28.82100000     -70.90900000
C      -42.02050000     -31.04810000     -71.68220000
H      -41.33410000     -30.17200000     -71.75570000
H      -41.55050000     -31.78950000     -72.33170000
C      -46.05070000     -31.23270000     -74.91700000
H      -46.95850000     -30.56620000     -75.03880000
H      -45.51560000     -31.09950000     -75.86080000
S      -41.84490000     -31.71130000     -69.96850000
S      -46.63290000     -33.00700000     -74.78390000
C      -42.42620000     -33.52500000     -70.00490000
H      -41.83610000     -34.16340000     -70.62060000
H      -42.15520000     -33.78530000     -68.97540000
C      -47.63420000     -33.05980000     -73.16820000
H      -48.43530000     -33.80890000     -73.26070000
H      -47.95300000     -31.98090000     -73.14170000
C      -46.69160000     -33.31060000     -71.93260000
H      -45.68680000     -33.19880000     -72.22630000
H      -46.84290000     -32.58310000     -71.16530000
C      -43.86830000     -33.69210000     -70.35910000
H      -43.92240000     -33.70840000     -71.46270000
H      -44.44420000     -32.71140000     -70.18610000
C      -44.68410000     -34.87890000     -69.83290000
C      -44.22350000     -35.75160000     -68.91600000
C      -46.07520000     -35.14020000     -70.14480000
H      -43.22680000     -35.74470000     -68.42430000
C      -46.64410000     -36.21870000     -69.52100000
C      -47.01520000     -34.60710000     -71.17850000
C      -48.08420000     -35.41180000     -71.37650000
S      -45.43670000     -36.91860000     -68.37950000
S      -48.14450000     -36.72200000     -70.11860000
H      -48.87120000     -35.22820000     -72.09320000
