40
Properties=species:S:1:pos:R:3 #=T CELL(abcABC):=T 1.889726e+02=T 90.00000=T Traj:=T positionsangstrom=T Step:=T 0=T Bead:=T pbc="F F F"
C      -47.29820000     -33.74240000     -75.02630000
C      -46.10000000     -34.37290000     -74.54950000
C      -46.17960000     -35.41640000     -73.65180000
C      -47.40870000     -35.84440000     -73.16270000
C      -48.58240000     -35.26780000     -73.71580000
C      -48.55700000     -34.28570000     -74.66640000
H      -47.06750000     -32.83650000     -75.67210000
H      -45.31280000     -35.92520000     -73.30930000
H      -49.55640000     -35.70680000     -73.41150000
H      -49.41770000     -33.86500000     -75.08540000
C      -47.39780000     -36.83650000     -71.97300000
H      -46.58510000     -37.54870000     -72.20250000
H      -48.38070000     -37.34740000     -71.87180000
C      -44.70280000     -33.87360000     -74.99740000
H      -43.82650000     -34.34870000     -74.53380000
H      -44.61210000     -33.92400000     -76.10130000
S      -47.12890000     -35.83160000     -70.40950000
S      -44.46180000     -32.15410000     -74.43510000
C      -47.56410000     -34.08710000     -70.75680000
H      -48.04580000     -34.04660000     -71.79430000
H      -48.31360000     -33.72500000     -70.04450000
C      -43.45940000     -32.43950000     -72.93450000
H      -42.44470000     -32.47460000     -73.21270000
H      -43.74320000     -33.42390000     -72.49310000
C      -43.61220000     -31.22110000     -72.01000000
H      -42.97410000     -30.33450000     -72.35510000
H      -44.62940000     -30.85330000     -72.23890000
C      -46.35310000     -33.16550000     -70.90310000
H      -46.71000000     -32.33850000     -71.44940000
H      -45.63200000     -33.74460000     -71.53940000
C      -45.57790000     -32.80700000     -69.64340000
C      -45.86050000     -33.32570000     -68.39740000
C      -44.22000000     -32.24140000     -69.62630000
H      -46.79340000     -33.83430000     -68.11590000
C      -43.66980000     -32.19720000     -68.32980000
C      -43.35080000     -31.51240000     -70.55310000
C      -42.24990000     -31.00710000     -69.93580000
S      -44.71340000     -32.93060000     -67.11230000
S      -42.13620000     -31.38330000     -68.24250000
H      -41.36230000     -30.58160000     -70.44910000
