40
Properties=species:S:1:pos:R:3 #=T CELL(abcABC):=T 1.889726e+02=T 90.00000=T Traj:=T positionsangstrom=T Step:=T 0=T Bead:=T pbc="F F F"
C      -46.28460000     -34.09930000     -75.55560000
C      -45.37910000     -34.53320000     -74.57710000
C      -45.83090000     -35.30570000     -73.45390000
C      -47.19150000     -35.65850000     -73.30870000
C      -48.09240000     -35.10350000     -74.17440000
C      -47.69770000     -34.32820000     -75.30610000
H      -45.94360000     -33.49260000     -76.45370000
H      -45.18170000     -35.65000000     -72.60080000
H      -49.12590000     -35.26480000     -74.04660000
H      -48.41450000     -33.99510000     -75.97640000
C      -47.52590000     -36.64610000     -72.22610000
H      -46.95290000     -37.63150000     -72.42930000
H      -48.64810000     -36.68590000     -72.14520000
C      -43.95480000     -34.08870000     -74.63410000
H      -43.32820000     -34.63700000     -73.83760000
H      -43.54670000     -34.17330000     -75.65100000
S      -46.79870000     -36.17130000     -70.66220000
S      -43.94120000     -32.27970000     -74.32970000
C      -47.74870000     -34.53260000     -70.35390000
H      -48.59070000     -34.52590000     -71.14340000
H      -48.34130000     -34.49600000     -69.44970000
C      -43.90200000     -32.21940000     -72.50020000
H      -42.85240000     -32.29380000     -72.09120000
H      -44.35480000     -33.15210000     -72.11420000
C      -44.67860000     -31.05490000     -71.87410000
H      -44.34160000     -30.02180000     -72.28280000
H      -45.74570000     -31.15680000     -72.02860000
C      -46.90980000     -33.27720000     -70.48830000
H      -47.51900000     -32.34850000     -70.47970000
H      -46.30590000     -33.32340000     -71.42490000
C      -45.87980000     -33.00990000     -69.37050000
C      -45.84580000     -33.70580000     -68.19750000
C      -44.77490000     -32.02280000     -69.42390000
H      -46.57500000     -34.49800000     -67.94520000
C      -43.95900000     -32.07580000     -68.30510000
C      -44.27940000     -31.10780000     -70.41230000
C      -43.23720000     -30.37790000     -69.96990000
S      -44.46890000     -33.24700000     -67.16410000
S      -42.75100000     -30.77950000     -68.40640000
H      -42.67540000     -29.76540000     -70.58500000
