40
Properties=species:S:1:pos:R:3 #=T CELL(abcABC):=T 1.889726e+02=T 90.00000=T Traj:=T positionsangstrom=T Step:=T 0=T Bead:=T pbc="F F F"
C      -46.40110000     -33.87000000     -75.36770000
C      -45.28180000     -34.40110000     -74.61990000
C      -45.60410000     -35.30190000     -73.57070000
C      -46.86190000     -35.88270000     -73.35680000
C      -47.93010000     -35.32350000     -74.08890000
C      -47.64040000     -34.43330000     -75.14640000
H      -46.20260000     -33.10830000     -76.18630000
H      -44.75080000     -35.65360000     -73.04010000
H      -48.97030000     -35.65910000     -74.05900000
H      -48.49570000     -34.01950000     -75.74860000
C      -47.13060000     -36.86300000     -72.26360000
H      -46.40180000     -37.67500000     -72.29150000
H      -48.08420000     -37.44920000     -72.32510000
C      -43.83800000     -33.99890000     -74.93020000
H      -43.04110000     -34.56570000     -74.39370000
H      -43.68450000     -33.92710000     -75.99890000
S      -46.87810000     -36.27300000     -70.54840000
S      -43.53100000     -32.26240000     -74.29420000
C      -47.75300000     -34.63580000     -70.41420000
H      -48.59120000     -34.65940000     -71.15230000
H      -48.27300000     -34.46810000     -69.45180000
C      -43.82160000     -32.30300000     -72.45310000
H      -42.81650000     -32.14240000     -72.03050000
H      -44.15520000     -33.33700000     -72.19410000
C      -44.80740000     -31.16780000     -71.93330000
H      -44.84980000     -30.17400000     -72.44670000
H      -45.85500000     -31.38750000     -72.14250000
C      -46.82200000     -33.50630000     -70.63350000
H      -47.56750000     -32.62420000     -70.78720000
H      -46.28540000     -33.57440000     -71.61510000
C      -45.80890000     -33.20340000     -69.48830000
C      -45.65700000     -33.89970000     -68.30640000
C      -44.93230000     -32.04620000     -69.50240000
H      -46.42410000     -34.66870000     -68.12800000
C      -44.26030000     -31.84830000     -68.28550000
C      -44.58950000     -30.95120000     -70.41060000
C      -43.72430000     -30.01440000     -69.89920000
S      -44.57760000     -33.19290000     -67.14200000
S      -43.10990000     -30.52250000     -68.32030000
H      -43.30610000     -29.23630000     -70.46680000
