40
Properties=species:S:1:pos:R:3 #=T CELL(abcABC):=T 1.889726e+02=T 90.00000=T Traj:=T positionsangstrom=T Step:=T 0=T Bead:=T pbc="F F F"
C      -45.17410000     -32.54850000     -75.34690000
C      -46.36990000     -32.43090000     -74.56600000
C      -46.29850000     -31.51850000     -73.46240000
C      -45.21950000     -30.67950000     -73.24570000
C      -44.06330000     -30.83710000     -74.03520000
C      -44.00170000     -31.86230000     -75.00020000
H      -45.17390000     -33.20040000     -76.24990000
H      -47.12490000     -31.30420000     -72.90420000
H      -43.25770000     -30.15230000     -73.87420000
H      -43.14930000     -31.97570000     -75.63650000
C      -45.23530000     -29.71230000     -72.08750000
H      -46.19440000     -29.70650000     -71.57900000
H      -45.11790000     -28.72250000     -72.42620000
C      -47.71550000     -33.03170000     -74.86490000
H      -48.31570000     -32.31220000     -75.37780000
H      -47.62200000     -33.89880000     -75.54750000
S      -43.73420000     -29.84840000     -70.89560000
S      -48.52450000     -33.75130000     -73.31810000
C      -43.91830000     -31.64400000     -70.75630000
H      -44.11950000     -32.09190000     -71.76880000
H      -42.86800000     -32.09810000     -70.61360000
C      -47.36700000     -34.98680000     -72.52700000
H      -47.02140000     -35.76380000     -73.16440000
H      -47.99290000     -35.41740000     -71.75290000
C      -46.18250000     -34.34600000     -71.74120000
H      -45.36520000     -34.01970000     -72.39660000
H      -46.44670000     -33.29820000     -71.37370000
C      -44.90580000     -31.99580000     -69.59960000
H      -45.85820000     -31.81060000     -70.08710000
H      -44.85770000     -31.39230000     -68.72340000
C      -44.66690000     -33.39660000     -68.94450000
C      -44.04750000     -33.56120000     -67.73950000
C      -44.98360000     -34.73220000     -69.53690000
H      -43.74130000     -32.78390000     -67.06730000
C      -44.51050000     -35.79090000     -68.75110000
C      -45.71130000     -35.23810000     -70.64730000
C      -45.80500000     -36.60780000     -70.60970000
S      -43.73560000     -35.23670000     -67.29820000
S      -44.83710000     -37.34610000     -69.32540000
H      -46.22260000     -37.33220000     -71.38200000
