40
Properties=species:S:1:pos:R:3 #=T CELL(abcABC):=T 1.889726e+02=T 90.00000=T Traj:=T positionsangstrom=T Step:=T 0=T Bead:=T pbc="F F F"
C      -47.35000000     -33.89570000     -75.12970000
C      -46.10670000     -34.44070000     -74.58280000
C      -46.18950000     -35.33520000     -73.54680000
C      -47.43530000     -35.75910000     -73.02940000
C      -48.61130000     -35.29160000     -73.51070000
C      -48.58880000     -34.38530000     -74.64970000
H      -47.37180000     -33.22880000     -75.99150000
H      -45.18580000     -35.71010000     -73.23620000
H      -49.56090000     -35.57660000     -73.16130000
H      -49.52830000     -34.02580000     -75.03670000
C      -47.56380000     -36.67510000     -71.91280000
H      -46.87180000     -37.47370000     -71.92450000
H      -48.54440000     -37.15890000     -71.91490000
C      -44.89670000     -33.86240000     -75.21480000
H      -44.04840000     -34.54790000     -75.31860000
H      -45.24850000     -33.69760000     -76.24540000
S      -47.27190000     -35.78140000     -70.29840000
S      -44.49300000     -32.08940000     -74.50050000
C      -47.60570000     -33.97770000     -70.50400000
H      -48.35820000     -33.90010000     -71.23600000
H      -47.97170000     -33.67220000     -69.51390000
C      -43.65100000     -32.32380000     -72.89090000
H      -42.64280000     -32.83780000     -73.07510000
H      -44.20620000     -33.10650000     -72.33640000
C      -43.61070000     -31.08470000     -72.04550000
H      -42.84850000     -30.43500000     -72.44580000
H      -44.48310000     -30.58880000     -71.79310000
C      -46.40120000     -33.08570000     -70.85470000
H      -46.87830000     -32.07340000     -71.15840000
H      -45.75540000     -33.44240000     -71.69290000
C      -45.43620000     -32.86680000     -69.69480000
C      -45.73440000     -33.33870000     -68.44830000
C      -44.11630000     -32.25060000     -69.67110000
H      -46.70540000     -33.82330000     -68.22550000
C      -43.54040000     -32.33200000     -68.39310000
C      -43.18040000     -31.56260000     -70.64980000
C      -42.05360000     -31.11810000     -70.01940000
S      -44.64040000     -32.90090000     -67.17880000
S      -41.99440000     -31.58530000     -68.29040000
H      -41.34480000     -30.42340000     -70.39920000
