40
Properties=species:S:1:pos:R:3 #=T CELL(abcABC):=T 1.889726e+02=T 90.00000=T Traj:=T positionsangstrom=T Step:=T 0=T Bead:=T pbc="F F F"
C      -45.20430000     -32.71330000     -75.14260000
C      -46.36150000     -32.19480000     -74.47980000
C      -46.19000000     -31.02050000     -73.66150000
C      -44.95750000     -30.57570000     -73.22250000
C      -43.80380000     -31.10630000     -73.88300000
C      -43.96570000     -32.02280000     -74.92440000
H      -45.25960000     -33.49890000     -75.83810000
H      -47.04520000     -30.61680000     -73.15750000
H      -42.82150000     -30.74390000     -73.61800000
H      -43.08880000     -32.52780000     -75.36910000
C      -44.80660000     -29.55920000     -72.18620000
H      -45.68730000     -29.50290000     -71.64870000
H      -44.38430000     -28.57920000     -72.32910000
C      -47.76220000     -32.60110000     -74.73150000
H      -48.34070000     -31.65660000     -74.93900000
H      -47.89880000     -33.15070000     -75.63670000
S      -43.44530000     -30.12490000     -70.99290000
S      -48.62220000     -33.40900000     -73.38550000
C      -43.87950000     -31.88770000     -70.63180000
H      -44.39380000     -32.38800000     -71.49140000
H      -42.94540000     -32.42080000     -70.47310000
C      -47.39140000     -34.53080000     -72.64240000
H      -46.74770000     -34.89780000     -73.38390000
H      -47.87790000     -35.41650000     -72.31780000
C      -46.66280000     -33.95550000     -71.37540000
H      -45.80500000     -33.29280000     -71.62980000
H      -47.38160000     -33.31380000     -70.79870000
C      -44.68970000     -32.14220000     -69.24220000
H      -45.77770000     -31.98490000     -69.35630000
H      -44.47400000     -31.45790000     -68.48060000
C      -44.45970000     -33.59740000     -68.83020000
C      -43.55050000     -33.97710000     -67.88460000
C      -45.12370000     -34.76830000     -69.37210000
H      -43.16760000     -33.43460000     -67.15490000
C      -44.62960000     -35.95120000     -68.85840000
C      -46.06680000     -35.02070000     -70.46910000
C      -46.32270000     -36.37500000     -70.60560000
S      -43.53290000     -35.68920000     -67.52290000
S      -45.36910000     -37.35740000     -69.52340000
H      -47.11390000     -36.70420000     -71.32380000
