40
Properties=species:S:1:pos:R:3 #=T CELL(abcABC):=T 1.889726e+02=T 90.00000=T Traj:=T positionsangstrom=T Step:=T 0=T Bead:=T pbc="F F F"
C      -46.17350000     -34.01500000     -75.50420000
C      -45.23450000     -34.52090000     -74.59870000
C      -45.62240000     -35.42560000     -73.52130000
C      -47.03140000     -35.73910000     -73.38210000
C      -47.94850000     -35.22510000     -74.29680000
C      -47.53040000     -34.36010000     -75.31820000
H      -45.81970000     -33.45330000     -76.35880000
H      -44.98980000     -35.92340000     -72.86480000
H      -49.01920000     -35.59540000     -74.22670000
H      -48.21390000     -33.94840000     -76.09890000
C      -47.50300000     -36.66890000     -72.19240000
H      -47.29860000     -37.68150000     -72.35090000
H      -48.56130000     -36.71090000     -72.16780000
C      -43.81650000     -34.04330000     -74.74620000
H      -43.14520000     -34.53150000     -74.10180000
H      -43.49380000     -34.23430000     -75.75010000
S      -46.84610000     -36.14440000     -70.49410000
S      -43.79830000     -32.22360000     -74.45920000
C      -47.79450000     -34.58520000     -70.12680000
H      -48.70900000     -34.80690000     -70.64730000
H      -47.99380000     -34.47050000     -69.06350000
C      -44.10180000     -32.27530000     -72.59660000
H      -43.10150000     -32.31480000     -72.17010000
H      -44.58060000     -33.23210000     -72.42710000
C      -44.78970000     -31.08090000     -71.89000000
H      -44.41750000     -30.14400000     -72.28100000
H      -45.86620000     -30.99820000     -71.99000000
C      -46.96020000     -33.33220000     -70.41400000
H      -47.62940000     -32.50140000     -70.53990000
H      -46.57350000     -33.43850000     -71.41590000
C      -45.83610000     -33.10960000     -69.41310000
C      -45.66390000     -33.85740000     -68.27320000
C      -44.94230000     -31.95440000     -69.44020000
H      -46.18750000     -34.74920000     -68.22050000
C      -44.14220000     -31.93270000     -68.31540000
C      -44.42170000     -31.06000000     -70.40830000
C      -43.39750000     -30.26010000     -69.98140000
S      -44.53130000     -33.18470000     -67.12430000
S      -42.87730000     -30.78000000     -68.36120000
H      -42.99590000     -29.42450000     -70.52900000
