40
Properties=species:S:1:pos:R:3 #=T CELL(abcABC):=T 1.889726e+02=T 90.00000=T Traj:=T positionsangstrom=T Step:=T 0=T Bead:=T pbc="F F F"
C      -46.79200000     -33.94570000     -75.47760000
C      -45.70170000     -34.39990000     -74.66730000
C      -45.98160000     -35.25990000     -73.61660000
C      -47.25950000     -35.70880000     -73.28010000
C      -48.34590000     -35.29690000     -74.17220000
C      -48.14020000     -34.42610000     -75.26950000
H      -46.43980000     -33.40990000     -76.28290000
H      -45.14700000     -35.47360000     -72.94000000
H      -49.33650000     -35.72470000     -73.99610000
H      -48.90180000     -34.19210000     -76.03930000
C      -47.48990000     -36.73100000     -72.14130000
H      -46.86170000     -37.63470000     -72.39010000
H      -48.55980000     -37.10190000     -72.00820000
C      -44.30630000     -33.94410000     -74.97590000
H      -43.56760000     -34.50580000     -74.38220000
H      -44.00940000     -34.15760000     -76.03260000
S      -47.06200000     -36.06210000     -70.41140000
S      -43.98570000     -32.12090000     -74.51970000
C      -47.62850000     -34.29140000     -70.46660000
H      -48.39290000     -34.22720000     -71.23980000
H      -48.29330000     -34.18420000     -69.55170000
C      -43.63500000     -32.42650000     -72.66950000
H      -42.55090000     -32.54520000     -72.41370000
H      -44.06780000     -33.39430000     -72.41300000
C      -44.10380000     -31.21200000     -71.89790000
H      -43.63980000     -30.29200000     -72.25090000
H      -45.18010000     -30.90830000     -72.11400000
C      -46.61520000     -33.17780000     -70.70650000
H      -47.07370000     -32.16980000     -70.83590000
H      -46.11860000     -33.33970000     -71.63320000
C      -45.66110000     -33.07290000     -69.49900000
C      -45.75860000     -33.75400000     -68.31760000
C      -44.54470000     -32.12550000     -69.47620000
H      -46.48270000     -34.50400000     -67.90470000
C      -43.96160000     -32.06070000     -68.18930000
C      -43.77030000     -31.30620000     -70.43310000
C      -42.81400000     -30.50980000     -69.80020000
S      -44.55870000     -33.20920000     -67.10700000
S      -42.65000000     -30.88900000     -68.11500000
H      -42.27670000     -29.60960000     -70.25880000
