40
Properties=species:S:1:pos:R:3 #=T CELL(abcABC):=T 1.889726e+02=T 90.00000=T Traj:=T positionsangstrom=T Step:=T 0=T Bead:=T pbc="F F F"
C      -45.18210000     -33.20320000     -75.02090000
C      -46.47890000     -33.10900000     -74.55520000
C      -46.75760000     -31.98300000     -73.78080000
C      -45.77480000     -31.10440000     -73.36450000
C      -44.51950000     -31.19000000     -73.97120000
C      -44.17730000     -32.27380000     -74.72410000
H      -44.84290000     -34.08270000     -75.61720000
H      -47.77460000     -31.76750000     -73.44700000
H      -43.79420000     -30.43540000     -73.62180000
H      -43.16120000     -32.39010000     -75.14070000
C      -46.26200000     -30.05040000     -72.45320000
H      -47.09960000     -30.53120000     -71.93260000
H      -46.50040000     -29.16800000     -73.09730000
C      -47.41210000     -34.26450000     -74.85350000
H      -48.18370000     -34.03070000     -75.66380000
H      -46.90420000     -35.18790000     -75.18830000
S      -45.09510000     -29.39050000     -71.17840000
S      -48.34480000     -34.82740000     -73.45170000
C      -44.44250000     -30.88140000     -70.35170000
H      -43.91110000     -31.53860000     -71.02520000
H      -43.63590000     -30.67520000     -69.67210000
C      -46.89270000     -35.59350000     -72.40610000
H      -46.18790000     -36.02160000     -73.20260000
H      -47.47230000     -36.23610000     -71.71420000
C      -46.17640000     -34.53290000     -71.55750000
H      -45.67270000     -33.91910000     -72.23520000
H      -46.81250000     -33.82020000     -71.07540000
C      -45.47880000     -31.84000000     -69.70700000
H      -46.13780000     -32.24690000     -70.49810000
H      -46.10940000     -31.31180000     -68.99370000
C      -44.76010000     -33.00220000     -69.00670000
C      -43.94000000     -32.76350000     -67.93750000
C      -44.74710000     -34.35660000     -69.42760000
H      -44.00340000     -31.77170000     -67.42790000
C      -43.91610000     -35.13610000     -68.67040000
C      -45.26200000     -35.16260000     -70.57380000
C      -44.80160000     -36.46620000     -70.52570000
S      -43.21100000     -34.23260000     -67.30840000
S      -43.78700000     -36.82430000     -69.15200000
H      -45.16590000     -37.27210000     -71.16480000
