40
Properties=species:S:1:pos:R:3 #=T CELL(abcABC):=T 1.889726e+02=T 90.00000=T Traj:=T positionsangstrom=T Step:=T 0=T Bead:=T pbc="F F F"
C      -45.21570000     -33.13320000     -75.26900000
C      -46.44340000     -33.22190000     -74.64800000
C      -46.76860000     -32.30280000     -73.67180000
C      -45.92930000     -31.25410000     -73.36220000
C      -44.66670000     -31.23590000     -73.93500000
C      -44.25120000     -32.21300000     -74.83320000
H      -44.97430000     -33.87280000     -75.95610000
H      -47.60050000     -32.36060000     -73.02130000
H      -44.03400000     -30.33310000     -73.81530000
H      -43.23510000     -32.24810000     -75.25470000
C      -46.37200000     -30.09260000     -72.49810000
H      -47.32880000     -30.20640000     -72.03540000
H      -46.59830000     -29.20430000     -73.11810000
C      -47.50700000     -34.27280000     -74.97460000
H      -48.21860000     -33.76000000     -75.50490000
H      -47.15340000     -35.13140000     -75.52150000
S      -45.25830000     -29.38440000     -71.26030000
S      -48.30560000     -35.03400000     -73.39610000
C      -44.30200000     -30.77270000     -70.41270000
H      -43.69770000     -31.30390000     -71.21490000
H      -43.74990000     -30.36860000     -69.60560000
C      -46.95310000     -35.64340000     -72.38180000
H      -46.22020000     -36.18540000     -72.94350000
H      -47.34870000     -36.44940000     -71.83730000
C      -46.34730000     -34.50570000     -71.33350000
H      -45.85920000     -33.78640000     -71.96580000
H      -47.27410000     -34.12420000     -70.83010000
C      -45.33060000     -31.73700000     -69.72060000
H      -45.93210000     -32.32150000     -70.44860000
H      -45.97420000     -31.11700000     -69.06620000
C      -44.59780000     -32.90020000     -68.96560000
C      -43.91390000     -32.72090000     -67.80320000
C      -44.51990000     -34.28270000     -69.43760000
H      -43.61280000     -31.79370000     -67.32330000
C      -43.69850000     -35.03750000     -68.68720000
C      -45.28750000     -35.06720000     -70.44910000
C      -44.94530000     -36.37110000     -70.38020000
S      -43.09820000     -34.24380000     -67.29990000
S      -43.72630000     -36.69050000     -69.18520000
H      -45.32300000     -37.12730000     -71.10500000
