40
Properties=species:S:1:pos:R:3 #=T CELL(abcABC):=T 1.889726e+02=T 90.00000=T Traj:=T positionsangstrom=T Step:=T 0=T Bead:=T pbc="F F F"
C      -46.97000000     -31.77110000     -68.72160000
C      -47.72880000     -31.62800000     -69.88600000
C      -47.16820000     -30.85090000     -70.88540000
C      -45.97540000     -30.13230000     -70.68590000
C      -45.35030000     -30.16320000     -69.39550000
C      -45.80940000     -31.06600000     -68.46750000
H      -47.34810000     -32.37930000     -67.94090000
H      -47.74270000     -30.53160000     -71.76780000
H      -44.52400000     -29.44030000     -69.17050000
H      -45.43580000     -31.23470000     -67.49880000
C      -45.50930000     -29.25220000     -71.85020000
H      -45.33850000     -28.29290000     -71.44920000
H      -46.49590000     -29.13740000     -72.45430000
C      -49.14440000     -32.25500000     -70.10740000
H      -49.83620000     -31.98470000     -69.28600000
H      -49.62660000     -32.02430000     -71.04800000
S      -44.08700000     -29.85410000     -72.80470000
S      -48.92730000     -34.13670000     -70.06510000
C      -43.90770000     -31.60600000     -72.37170000
H      -42.83540000     -31.76630000     -72.67350000
H      -43.92960000     -31.65930000     -71.31990000
C      -47.44890000     -34.42350000     -71.12390000
H      -47.47710000     -33.76240000     -71.96610000
H      -47.61020000     -35.47740000     -71.33700000
C      -46.13640000     -34.31120000     -70.36760000
H      -45.63480000     -33.40640000     -70.60990000
H      -46.26640000     -34.37810000     -69.31890000
C      -44.76320000     -32.74920000     -73.07010000
H      -44.88890000     -32.56250000     -74.06580000
H      -45.78150000     -32.78690000     -72.60230000
C      -44.01680000     -34.04900000     -72.82120000
C      -42.94380000     -34.31730000     -73.60680000
C      -44.21390000     -35.11970000     -71.89510000
H      -42.48000000     -33.61430000     -74.28920000
C      -43.28820000     -36.18200000     -72.01190000
C      -45.13100000     -35.39250000     -70.81780000
C      -45.03550000     -36.64500000     -70.20530000
S      -42.18250000     -35.90390000     -73.34690000
S      -43.74020000     -37.59740000     -71.05420000
H      -45.45030000     -36.99520000     -69.22630000
