40
Properties=species:S:1:pos:R:3 #=T CELL(abcABC):=T 1.889726e+02=T 90.00000=T Traj:=T positionsangstrom=T Step:=T 0=T Bead:=T pbc="F F F"
C      -47.37190000     -30.71990000     -68.71560000
C      -47.57340000     -31.06480000     -70.10160000
C      -46.66830000     -30.65270000     -71.08320000
C      -45.54850000     -29.80590000     -70.78040000
C      -45.46490000     -29.40370000     -69.41530000
C      -46.29790000     -29.89150000     -68.40460000
H      -47.94820000     -31.14370000     -67.83640000
H      -46.68710000     -31.08680000     -72.09930000
H      -44.59360000     -28.77880000     -69.11580000
H      -46.15940000     -29.58540000     -67.35600000
C      -44.66920000     -29.22820000     -71.81050000
H      -43.90980000     -28.61570000     -71.38360000
H      -45.17500000     -28.58140000     -72.50800000
C      -48.84330000     -31.87650000     -70.31850000
H      -49.61850000     -31.31510000     -69.81330000
H      -49.10370000     -31.91030000     -71.42180000
S      -43.85960000     -30.39180000     -73.01100000
S      -48.68280000     -33.45990000     -69.46710000
C      -43.78970000     -32.00620000     -72.20080000
H      -42.71520000     -32.38420000     -72.16370000
H      -44.21440000     -32.03120000     -71.22180000
C      -47.58950000     -34.44190000     -70.60320000
H      -47.80760000     -34.22700000     -71.63330000
H      -47.93070000     -35.50470000     -70.57530000
C      -46.04560000     -34.31410000     -70.32540000
H      -45.58650000     -33.44990000     -70.80440000
H      -45.82710000     -34.13560000     -69.25890000
C      -44.58160000     -33.08300000     -73.11340000
H      -44.38700000     -32.80320000     -74.14570000
H      -45.69700000     -33.23330000     -72.93910000
C      -43.87390000     -34.39880000     -72.91450000
C      -42.91260000     -34.85500000     -73.74270000
C      -44.40890000     -35.40640000     -72.00250000
H      -42.54980000     -34.41320000     -74.68780000
C      -43.66280000     -36.58080000     -72.14430000
C      -45.24840000     -35.48160000     -70.82440000
C      -45.23970000     -36.77480000     -70.25860000
S      -42.54610000     -36.54630000     -73.48500000
S      -44.22010000     -37.85230000     -71.11790000
H      -45.92110000     -37.09220000     -69.52030000
