40
Properties=species:S:1:pos:R:3 #=T CELL(abcABC):=T 1.889726e+02=T 90.00000=T Traj:=T positionsangstrom=T Step:=T 0=T Bead:=T pbc="F F F"
C      -47.28880000     -29.95220000     -68.86240000
C      -47.32860000     -30.58430000     -70.10470000
C      -46.18920000     -30.42340000     -70.90650000
C      -44.96940000     -29.81390000     -70.43470000
C      -45.03760000     -29.08970000     -69.26170000
C      -46.16530000     -29.24680000     -68.45140000
H      -47.95380000     -30.20790000     -68.04770000
H      -46.09260000     -30.91420000     -71.87650000
H      -44.13710000     -28.58990000     -68.76090000
H      -46.19040000     -28.75270000     -67.55600000
C      -43.59530000     -29.91800000     -71.26820000
H      -42.84520000     -30.38300000     -70.63550000
H      -43.27120000     -28.89560000     -71.39140000
C      -48.56320000     -31.45960000     -70.46610000
H      -49.50350000     -31.00650000     -70.15280000
H      -48.59090000     -31.76890000     -71.58230000
S      -43.71280000     -30.53320000     -72.99330000
S      -48.63860000     -33.10100000     -69.48320000
C      -43.62830000     -32.35260000     -72.86790000
H      -42.81280000     -32.64880000     -73.51280000
H      -43.32330000     -32.74680000     -71.86020000
C      -47.62330000     -34.33480000     -70.38450000
H      -47.74070000     -34.04110000     -71.40140000
H      -48.17750000     -35.30870000     -70.20300000
C      -46.06690000     -34.37130000     -70.14420000
H      -45.57600000     -33.38380000     -70.40120000
H      -45.85660000     -34.47600000     -69.05460000
C      -44.81110000     -33.23760000     -73.23390000
H      -45.13900000     -33.02640000     -74.26720000
H      -45.70820000     -32.95640000     -72.71320000
C      -44.39720000     -34.67340000     -73.07020000
C      -43.53770000     -35.17000000     -74.01860000
C      -44.72380000     -35.62430000     -72.06750000
H      -43.21410000     -34.65840000     -74.82720000
C      -44.02060000     -36.84280000     -72.23830000
C      -45.48110000     -35.56860000     -70.83360000
C      -45.34890000     -36.73240000     -70.13140000
S      -43.12080000     -36.89810000     -73.76060000
S      -44.33980000     -37.92620000     -70.88330000
H      -45.76850000     -36.93130000     -69.15320000
