40
Properties=species:S:1:pos:R:3 #=T CELL(abcABC):=T 1.889726e+02=T 90.00000=T Traj:=T positionsangstrom=T Step:=T 0=T Bead:=T pbc="F F F"
C      -44.70060000     -34.41450000     -73.46260000
C      -44.92920000     -35.47640000     -72.63990000
C      -44.08610000     -35.63380000     -71.50910000
C      -43.08990000     -34.70690000     -71.20160000
C      -42.94030000     -33.55000000     -71.99050000
C      -43.71990000     -33.41100000     -73.15120000
H      -45.26000000     -34.28780000     -74.39540000
H      -44.19240000     -36.55520000     -70.93760000
H      -42.12160000     -32.85680000     -71.68900000
H      -43.59370000     -32.57020000     -73.79430000
C      -42.34280000     -34.92550000     -69.89630000
H      -41.30380000     -34.67320000     -69.85690000
H      -42.32750000     -36.03230000     -69.64430000
C      -46.12410000     -36.47420000     -72.81660000
H      -46.07750000     -37.29760000     -73.52780000
H      -46.19750000     -37.04020000     -71.85920000
S      -43.19040000     -33.99430000     -68.49130000
S      -47.66340000     -35.71260000     -73.43470000
C      -44.96690000     -34.41420000     -68.62810000
H      -45.08230000     -35.00540000     -69.55040000
H      -45.20340000     -35.02510000     -67.78180000
C      -48.49420000     -35.00360000     -71.96030000
H      -49.10510000     -35.76890000     -71.33330000
H      -49.16130000     -34.27350000     -72.33330000
C      -47.45820000     -34.24490000     -71.07580000
H      -47.88960000     -34.04680000     -70.04870000
H      -46.56370000     -34.92730000     -70.86110000
C      -45.77060000     -33.13070000     -68.39770000
H      -45.58400000     -32.66080000     -67.39230000
H      -46.85240000     -33.37230000     -68.31260000
C      -45.53110000     -32.09420000     -69.46140000
C      -44.82790000     -30.93140000     -69.20740000
C      -45.85670000     -32.14610000     -70.89020000
H      -44.46660000     -30.68720000     -68.18460000
C      -45.39780000     -31.07610000     -71.66620000
C      -46.84620000     -32.93400000     -71.62480000
C      -47.14210000     -32.43290000     -72.89650000
S      -44.51830000     -29.97730000     -70.66310000
S      -46.24290000     -30.95090000     -73.20270000
H      -47.79880000     -32.72820000     -73.70930000
