40
Properties=species:S:1:pos:R:3 #=T CELL(abcABC):=T 1.889726e+02=T 90.00000=T Traj:=T positionsangstrom=T Step:=T 0=T Bead:=T pbc="F F F"
C      -46.48050000     -35.88530000     -73.83400000
C      -45.33730000     -35.10890000     -74.01710000
C      -44.19870000     -35.37720000     -73.25030000
C      -44.31500000     -36.31320000     -72.19870000
C      -45.48630000     -37.04040000     -72.03820000
C      -46.60320000     -36.84280000     -72.84090000
H      -47.27070000     -35.73690000     -74.49720000
H      -43.31690000     -34.78540000     -73.44380000
H      -45.48880000     -37.83170000     -71.33110000
H      -47.47000000     -37.46300000     -72.75390000
C      -43.01000000     -36.67110000     -71.45660000
H      -42.31930000     -37.25690000     -72.14110000
H      -43.22410000     -37.37210000     -70.66750000
C      -45.38410000     -34.05530000     -75.07890000
H      -44.85620000     -34.43570000     -76.00630000
H      -46.42400000     -34.12720000     -75.42250000
S      -41.90050000     -35.36600000     -70.73960000
S      -44.78210000     -32.39460000     -74.77060000
C      -43.08660000     -34.48090000     -69.67250000
H      -43.70070000     -35.24270000     -69.04830000
H      -42.53900000     -33.96720000     -68.91960000
C      -45.85410000     -31.97160000     -73.28510000
H      -45.97500000     -32.86190000     -72.58130000
H      -46.95100000     -31.68780000     -73.52130000
C      -45.38240000     -30.76790000     -72.40390000
H      -44.32780000     -30.88760000     -72.12450000
H      -45.55340000     -29.92470000     -72.94550000
C      -43.94680000     -33.38970000     -70.45790000
H      -44.22340000     -33.78430000     -71.42700000
H      -43.24070000     -32.61730000     -70.72320000
C      -45.15730000     -32.86810000     -69.68300000
C      -45.52450000     -33.53890000     -68.57640000
C      -45.96390000     -31.68950000     -70.01120000
H      -45.12570000     -34.52280000     -68.36200000
C      -46.77340000     -31.41420000     -68.95080000
C      -46.16890000     -30.74180000     -71.11420000
C      -47.19750000     -29.86690000     -70.84460000
S      -46.70180000     -32.64220000     -67.63390000
S      -47.90180000     -30.04050000     -69.23600000
H      -47.61900000     -29.21440000     -71.57990000
