40
Properties=species:S:1:pos:R:3 #=T CELL(abcABC):=T 1.889726e+02=T 90.00000=T Traj:=T positionsangstrom=T Step:=T 0=T Bead:=T pbc="F F F"
C      -44.43300000     -34.49890000     -73.64680000
C      -44.92000000     -35.55580000     -72.76660000
C      -44.25110000     -35.82680000     -71.61100000
C      -43.03320000     -35.07400000     -71.29430000
C      -42.65310000     -33.98260000     -72.08940000
C      -43.34570000     -33.74080000     -73.26600000
H      -44.98090000     -34.17060000     -74.50270000
H      -44.53110000     -36.68380000     -71.03840000
H      -41.75990000     -33.39220000     -71.85590000
H      -43.02500000     -32.85280000     -73.80760000
C      -42.29350000     -35.22940000     -69.93130000
H      -41.22130000     -34.91910000     -70.09570000
H      -42.33140000     -36.24450000     -69.49700000
C      -46.10640000     -36.37060000     -73.16740000
H      -45.72140000     -37.03490000     -73.96510000
H      -46.55910000     -36.96260000     -72.39850000
S      -42.85310000     -33.94300000     -68.77710000
S      -47.56830000     -35.38570000     -73.63210000
C      -44.61070000     -34.34320000     -68.49880000
H      -44.87890000     -34.77780000     -69.45360000
H      -44.73750000     -35.10760000     -67.71450000
C      -48.41100000     -35.10800000     -71.96930000
H      -48.82990000     -35.96480000     -71.54110000
H      -49.36730000     -34.57820000     -72.20910000
C      -47.56090000     -34.31130000     -71.02900000
H      -48.11280000     -34.10820000     -70.05740000
H      -46.66690000     -34.84300000     -70.72550000
C      -45.56630000     -33.19840000     -68.22110000
H      -45.34260000     -32.63010000     -67.29710000
H      -46.61070000     -33.55170000     -68.14050000
C      -45.55740000     -32.18780000     -69.35130000
C      -44.78180000     -31.09840000     -69.06850000
C      -46.19120000     -32.08750000     -70.72320000
H      -44.27740000     -30.85950000     -68.11680000
C      -45.82470000     -30.91780000     -71.35600000
C      -47.12450000     -32.85870000     -71.53110000
C      -47.42400000     -32.20530000     -72.72990000
S      -44.73550000     -29.94140000     -70.51010000
S      -46.56260000     -30.72350000     -72.93470000
H      -48.12090000     -32.53210000     -73.50070000
