40
Properties=species:S:1:pos:R:3 #=T CELL(abcABC):=T 1.889726e+02=T 90.00000=T Traj:=T positionsangstrom=T Step:=T 0=T Bead:=T pbc="F F F"
C      -44.25750000     -34.39190000     -73.78170000
C      -44.73930000     -35.45140000     -73.00680000
C      -44.09350000     -35.81080000     -71.74340000
C      -42.97620000     -35.04340000     -71.39620000
C      -42.51840000     -33.96310000     -72.17380000
C      -43.17020000     -33.62770000     -73.35230000
H      -44.72300000     -34.16810000     -74.73510000
H      -44.51280000     -36.71260000     -71.19480000
H      -41.76460000     -33.33170000     -71.79750000
H      -42.77630000     -32.88780000     -74.04920000
C      -42.34380000     -35.35630000     -70.08140000
H      -41.29760000     -35.21470000     -70.17630000
H      -42.74790000     -36.30780000     -69.70080000
C      -45.88870000     -36.30260000     -73.53710000
H      -45.73190000     -36.71740000     -74.50540000
H      -45.94470000     -37.14210000     -72.81160000
S      -42.91820000     -34.12320000     -68.76470000
S      -47.49780000     -35.27850000     -73.68810000
C      -44.76570000     -34.54160000     -68.54610000
H      -45.07030000     -35.04990000     -69.43360000
H      -44.90100000     -35.19210000     -67.70730000
C      -48.18350000     -35.26640000     -71.96350000
H      -48.40820000     -36.26750000     -71.59630000
H      -49.15240000     -34.76380000     -72.16470000
C      -47.36360000     -34.34970000     -71.01300000
H      -47.87900000     -34.33290000     -70.05910000
H      -46.34950000     -34.85320000     -70.88230000
C      -45.53860000     -33.24320000     -68.19240000
H      -44.94900000     -32.73560000     -67.40400000
H      -46.50900000     -33.48060000     -67.84260000
C      -45.52120000     -32.16200000     -69.31190000
C      -44.68040000     -31.11980000     -69.13440000
C      -46.21590000     -32.08130000     -70.55970000
H      -43.99030000     -30.85990000     -68.43220000
C      -46.04960000     -30.83080000     -71.15600000
C      -47.15280000     -32.87880000     -71.38550000
C      -47.56230000     -32.29550000     -72.53950000
S      -44.86240000     -29.86620000     -70.45600000
S      -46.91240000     -30.63330000     -72.65040000
H      -48.09300000     -32.69540000     -73.37160000
