40
Properties=species:S:1:pos:R:3 #=T CELL(abcABC):=T 1.889726e+02=T 90.00000=T Traj:=T positionsangstrom=T Step:=T 0=T Bead:=T pbc="F F F"
C      -44.56110000     -33.85040000     -73.72750000
C      -44.64720000     -35.15200000     -73.26720000
C      -43.80980000     -35.56820000     -72.16610000
C      -42.90460000     -34.61870000     -71.65880000
C      -42.86740000     -33.27090000     -72.11280000
C      -43.69230000     -32.92250000     -73.17860000
H      -45.10220000     -33.58090000     -74.62810000
H      -43.81720000     -36.47230000     -71.66140000
H      -42.23300000     -32.52360000     -71.67370000
H      -43.80550000     -31.87800000     -73.39530000
C      -42.01730000     -34.90490000     -70.51020000
H      -41.03680000     -34.40440000     -70.47020000
H      -41.87600000     -35.99010000     -70.35500000
C      -45.65670000     -36.14600000     -73.77720000
H      -45.26780000     -36.49440000     -74.75570000
H      -45.66200000     -37.06890000     -73.21540000
S      -42.72950000     -34.07660000     -68.98550000
S      -47.42160000     -35.49890000     -74.05750000
C      -44.46200000     -34.80970000     -68.84280000
H      -44.73340000     -35.22390000     -69.85110000
H      -44.52950000     -35.66130000     -68.18040000
C      -48.21030000     -35.31460000     -72.41630000
H      -48.38830000     -36.35880000     -72.06210000
H      -49.12750000     -34.77780000     -72.64600000
C      -47.41530000     -34.63050000     -71.27380000
H      -48.03180000     -34.75390000     -70.34390000
H      -46.54310000     -35.25880000     -71.05800000
C      -45.47630000     -33.79630000     -68.31480000
H      -45.22550000     -33.66540000     -67.23470000
H      -46.47360000     -34.26550000     -68.15530000
C      -45.63640000     -32.53200000     -69.05320000
C      -45.25910000     -31.33320000     -68.45380000
C      -46.21400000     -32.38320000     -70.38960000
H      -44.64480000     -31.27120000     -67.54350000
C      -46.04400000     -31.07620000     -70.84450000
C      -46.96410000     -33.16330000     -71.39780000
C      -47.37620000     -32.34240000     -72.43250000
S      -45.20980000     -29.99380000     -69.69700000
S      -46.77590000     -30.68140000     -72.37860000
H      -47.72170000     -32.67960000     -73.41290000
