40
Properties=species:S:1:pos:R:3 #=T CELL(abcABC):=T 1.889726e+02=T 90.00000=T Traj:=T positionsangstrom=T Step:=T 0=T Bead:=T pbc="F F F"
C      -44.81900000     -32.57530000     -74.93330000
C      -44.39220000     -31.62270000     -73.94380000
C      -43.31680000     -31.89600000     -73.12380000
C      -42.55120000     -33.08020000     -73.24120000
C      -42.99590000     -34.05760000     -74.18460000
C      -44.07130000     -33.75380000     -75.02240000
H      -45.63180000     -32.33220000     -75.57340000
H      -42.87090000     -31.13050000     -72.50210000
H      -42.47490000     -35.00610000     -74.25330000
H      -44.38530000     -34.37590000     -75.77060000
C      -41.26770000     -33.27430000     -72.45910000
H      -40.91160000     -32.26600000     -72.14420000
H      -40.55410000     -33.60210000     -73.17280000
C      -45.14270000     -30.27650000     -73.75810000
H      -44.72410000     -29.78320000     -72.90110000
H      -45.04020000     -29.56950000     -74.56300000
S      -41.48590000     -34.37420000     -70.94440000
S      -47.01200000     -30.49610000     -73.39970000
C      -43.15010000     -33.85280000     -70.39000000
H      -43.20130000     -34.26360000     -69.36470000
H      -43.31710000     -32.72180000     -70.33190000
C      -46.98400000     -32.08060000     -72.35320000
H      -46.34770000     -32.80350000     -72.89640000
H      -48.00960000     -32.47000000     -72.25960000
C      -46.51410000     -31.63190000     -70.93590000
H      -45.45580000     -31.58450000     -70.99820000
H      -46.84230000     -30.55140000     -70.65270000
C      -44.30600000     -34.46850000     -71.09510000
H      -44.00630000     -35.38620000     -71.73670000
H      -44.78760000     -33.86850000     -71.84690000
C      -45.37960000     -34.89340000     -70.16360000
C      -45.48810000     -36.16780000     -69.68740000
C      -46.46750000     -33.99310000     -69.67850000
H      -44.90160000     -36.99240000     -69.90570000
C      -47.27110000     -34.70840000     -68.80440000
C      -46.99720000     -32.63730000     -69.89970000
C      -48.12800000     -32.43190000     -69.11010000
S      -46.83310000     -36.43010000     -68.57490000
S      -48.66950000     -33.86090000     -68.23200000
H      -48.79030000     -31.48350000     -69.14530000
