40
Properties=species:S:1:pos:R:3 #=T CELL(abcABC):=T 1.889726e+02=T 90.00000=T Traj:=T positionsangstrom=T Step:=T 0=T Bead:=T pbc="F F F"
C      -44.51170000     -33.15470000     -73.78320000
C      -44.40670000     -34.52260000     -73.53990000
C      -43.63460000     -34.94660000     -72.44510000
C      -42.72940000     -34.01770000     -71.82770000
C      -42.87030000     -32.61150000     -72.11210000
C      -43.80480000     -32.22620000     -73.03610000
H      -45.27280000     -32.88540000     -74.54810000
H      -43.60020000     -36.04020000     -72.31700000
H      -42.28190000     -31.83380000     -71.59420000
H      -43.82640000     -31.15930000     -73.34000000
C      -41.75840000     -34.49160000     -70.86080000
H      -40.75370000     -34.05480000     -70.87740000
H      -41.48030000     -35.53610000     -71.09620000
C      -45.20320000     -35.56190000     -74.30390000
H      -44.97470000     -35.56010000     -75.40760000
H      -44.97400000     -36.57640000     -73.93390000
S      -42.43430000     -34.41250000     -69.07060000
S      -47.01680000     -35.13470000     -74.27410000
C      -44.11280000     -35.13620000     -69.10330000
H      -44.38390000     -35.34930000     -70.16120000
H      -44.10270000     -36.12780000     -68.59310000
C      -47.60390000     -35.74560000     -72.58580000
H      -47.26450000     -36.73200000     -72.47720000
H      -48.64670000     -35.64150000     -72.63280000
C      -47.06290000     -34.97490000     -71.37150000
H      -47.69080000     -35.32820000     -70.54440000
H      -46.08750000     -35.26590000     -71.09530000
C      -45.12690000     -34.19200000     -68.34540000
H      -44.59230000     -33.92730000     -67.37600000
H      -45.99050000     -34.78680000     -68.02070000
C      -45.60730000     -32.90270000     -69.08610000
C      -45.19750000     -31.70880000     -68.49220000
C      -46.34940000     -32.67010000     -70.28630000
H      -44.49280000     -31.52080000     -67.64830000
C      -46.58440000     -31.31100000     -70.50200000
C      -47.10290000     -33.50420000     -71.29910000
C      -47.68410000     -32.64760000     -72.20590000
S      -45.88120000     -30.34060000     -69.28670000
S      -47.67140000     -30.95360000     -71.85000000
H      -48.42040000     -32.96340000     -72.94000000
