40
Properties=species:S:1:pos:R:3 #=T CELL(abcABC):=T 1.889726e+02=T 90.00000=T Traj:=T positionsangstrom=T Step:=T 0=T Bead:=T pbc="F F F"
C      -44.36830000     -33.45790000     -73.96390000
C      -44.53190000     -34.69770000     -73.35190000
C      -43.75260000     -35.07300000     -72.20230000
C      -42.96630000     -34.14090000     -71.56600000
C      -42.98380000     -32.81460000     -72.09790000
C      -43.72050000     -32.47200000     -73.19260000
H      -44.95110000     -33.18420000     -74.83240000
H      -43.84780000     -36.05240000     -71.79610000
H      -42.47010000     -32.06690000     -71.55110000
H      -43.74200000     -31.50030000     -73.65270000
C      -42.09660000     -34.32050000     -70.32290000
H      -41.25680000     -33.63270000     -70.33210000
H      -41.71330000     -35.33620000     -70.23750000
C      -45.42070000     -35.75280000     -74.07190000
H      -45.11820000     -35.94420000     -75.09240000
H      -45.45450000     -36.69970000     -73.47330000
S      -42.81490000     -34.04110000     -68.64090000
S      -47.21190000     -35.39610000     -74.14690000
C      -44.47220000     -34.93830000     -68.74550000
H      -44.60010000     -35.40160000     -69.79500000
H      -44.46120000     -35.78050000     -68.03060000
C      -48.09490000     -35.53600000     -72.48340000
H      -48.11240000     -36.65730000     -72.26890000
H      -49.17870000     -35.22450000     -72.58320000
C      -47.30810000     -34.92680000     -71.36700000
H      -47.63560000     -35.25030000     -70.37700000
H      -46.30290000     -35.45740000     -71.43240000
C      -45.64740000     -34.05580000     -68.29470000
H      -45.52460000     -33.77450000     -67.25110000
H      -46.51500000     -34.73620000     -68.31330000
C      -45.75450000     -32.85730000     -69.12110000
C      -45.06700000     -31.75450000     -68.69050000
C      -46.34280000     -32.63730000     -70.40610000
H      -44.70720000     -31.71570000     -67.68390000
C      -46.11650000     -31.28930000     -70.82420000
C      -47.02090000     -33.39200000     -71.43740000
C      -47.41550000     -32.62350000     -72.49250000
S      -45.20120000     -30.35420000     -69.67850000
S      -46.97560000     -30.89190000     -72.30430000
H      -48.09150000     -32.96440000     -73.30580000
