40
Properties=species:S:1:pos:R:3 #=T CELL(abcABC):=T 1.889726e+02=T 90.00000=T Traj:=T positionsangstrom=T Step:=T 0=T Bead:=T pbc="F F F"
C      -44.58100000     -33.35590000     -73.76290000
C      -44.56710000     -34.65920000     -73.24370000
C      -43.67970000     -34.99720000     -72.22240000
C      -42.91730000     -34.05130000     -71.59180000
C      -42.95360000     -32.73910000     -71.98770000
C      -43.81300000     -32.37600000     -73.06100000
H      -45.20600000     -32.99090000     -74.60330000
H      -43.60790000     -36.04880000     -71.84990000
H      -42.38770000     -31.95770000     -71.43430000
H      -43.74460000     -31.40040000     -73.51030000
C      -42.09620000     -34.47870000     -70.39850000
H      -41.15320000     -33.88360000     -70.57690000
H      -41.77430000     -35.54000000     -70.49170000
C      -45.26390000     -35.73420000     -73.87940000
H      -44.84790000     -35.95670000     -74.89650000
H      -45.30090000     -36.69720000     -73.31650000
S      -42.82690000     -34.23470000     -68.73070000
S      -47.08580000     -35.07780000     -74.18160000
C      -44.44940000     -35.13570000     -68.80240000
H      -44.66050000     -35.53650000     -69.72650000
H      -44.37770000     -36.00610000     -68.12020000
C      -47.80260000     -35.71810000     -72.55230000
H      -47.74180000     -36.74840000     -72.43420000
H      -48.86750000     -35.56830000     -72.71630000
C      -47.27340000     -34.95400000     -71.25640000
H      -47.99770000     -35.24240000     -70.49750000
H      -46.33680000     -35.45620000     -71.02440000
C      -45.61760000     -34.17040000     -68.42310000
H      -45.66500000     -34.01410000     -67.32570000
H      -46.52010000     -34.63820000     -68.75320000
C      -45.66010000     -32.83150000     -69.12840000
C      -45.10500000     -31.68440000     -68.64880000
C      -46.29930000     -32.59320000     -70.41980000
H      -44.46810000     -31.65760000     -67.73570000
C      -46.16710000     -31.27690000     -70.89960000
C      -47.12280000     -33.37620000     -71.27900000
C      -47.68060000     -32.69220000     -72.32710000
S      -45.25900000     -30.28540000     -69.75790000
S      -47.06170000     -31.02080000     -72.37790000
H      -48.44810000     -33.08970000     -73.07670000
