40
Properties=species:S:1:pos:R:3 #=T CELL(abcABC):=T 1.889726e+02=T 90.00000=T Traj:=T positionsangstrom=T Step:=T 0=T Bead:=T pbc="F F F"
C      -44.62740000     -33.08290000     -73.40320000
C      -44.53800000     -34.43760000     -73.14470000
C      -43.58150000     -34.95140000     -72.26200000
C      -42.74310000     -34.04600000     -71.56760000
C      -42.89090000     -32.67200000     -71.71110000
C      -43.83660000     -32.24550000     -72.64840000
H      -45.36510000     -32.80960000     -74.15380000
H      -43.46860000     -36.01400000     -72.06330000
H      -42.33520000     -31.95780000     -71.14340000
H      -43.90990000     -31.19010000     -72.84180000
C      -41.85590000     -34.59780000     -70.50040000
H      -40.92060000     -34.07780000     -70.34370000
H      -41.67050000     -35.69230000     -70.56470000
C      -45.19960000     -35.43890000     -74.06130000
H      -44.75280000     -35.33320000     -75.04650000
H      -45.00110000     -36.47240000     -73.69220000
S      -42.62950000     -34.35480000     -68.75900000
S      -47.01810000     -35.39430000     -74.25500000
C      -44.25240000     -35.15390000     -69.00520000
H      -44.21950000     -35.48750000     -70.05010000
H      -44.24000000     -36.03940000     -68.45640000
C      -47.70500000     -35.69760000     -72.62980000
H      -47.80470000     -36.76600000     -72.46050000
H      -48.72880000     -35.57720000     -72.74000000
C      -47.25980000     -34.93900000     -71.40550000
H      -47.92550000     -35.28390000     -70.64750000
H      -46.30460000     -35.28920000     -71.01970000
C      -45.55540000     -34.29010000     -68.73140000
H      -45.58150000     -34.09510000     -67.68270000
H      -46.44300000     -34.84430000     -69.02550000
C      -45.57100000     -32.93440000     -69.37030000
C      -44.89400000     -31.85310000     -68.84020000
C      -46.44580000     -32.58650000     -70.44500000
H      -44.32350000     -31.74950000     -67.96530000
C      -46.42670000     -31.23420000     -70.81590000
C      -47.27840000     -33.41780000     -71.40190000
C      -47.97080000     -32.61300000     -72.25890000
S      -45.35260000     -30.32180000     -69.67780000
S      -47.44150000     -30.80990000     -72.20750000
H      -48.45630000     -32.95480000     -73.13150000
