40
Properties=species:S:1:pos:R:3 #=T CELL(abcABC):=T 1.889726e+02=T 90.00000=T Traj:=T positionsangstrom=T Step:=T 0=T Bead:=T pbc="F F F"
C      -44.55860000     -33.00310000     -73.96980000
C      -44.38460000     -34.40320000     -73.80250000
C      -43.59640000     -34.84870000     -72.72360000
C      -42.84880000     -33.90120000     -71.92880000
C      -43.15200000     -32.51980000     -72.08280000
C      -43.96140000     -32.11790000     -73.12140000
H      -45.10030000     -32.56760000     -74.88150000
H      -43.47990000     -35.89490000     -72.36850000
H      -42.63370000     -31.81240000     -71.47820000
H      -44.19260000     -31.08060000     -73.22180000
C      -41.79230000     -34.28260000     -70.88510000
H      -40.87830000     -33.69350000     -71.06810000
H      -41.40070000     -35.27110000     -70.99580000
C      -45.24990000     -35.41220000     -74.52310000
H      -45.02950000     -35.36270000     -75.63870000
H      -45.06460000     -36.38560000     -74.24820000
S      -42.41930000     -33.95520000     -69.21390000
S      -47.02880000     -34.97190000     -74.20440000
C      -43.91990000     -35.05670000     -69.13740000
H      -44.04250000     -35.46320000     -70.13460000
H      -43.63890000     -35.99300000     -68.57930000
C      -47.38380000     -35.76960000     -72.53600000
H      -47.09790000     -36.85100000     -72.58170000
H      -48.48180000     -35.74290000     -72.31270000
C      -46.74770000     -35.15120000     -71.37730000
H      -46.97190000     -35.68920000     -70.45940000
H      -45.63810000     -35.26310000     -71.42440000
C      -45.09590000     -34.42410000     -68.46540000
H      -44.94370000     -34.23220000     -67.38120000
H      -45.98690000     -35.10960000     -68.44250000
C      -45.53620000     -33.09350000     -69.05930000
C      -45.16860000     -31.93490000     -68.41990000
C      -46.35600000     -32.89110000     -70.19960000
H      -44.54310000     -31.92440000     -67.55090000
C      -46.60840000     -31.51510000     -70.33240000
C      -47.10880000     -33.67270000     -71.17130000
C      -47.86870000     -32.94740000     -72.00300000
S      -45.78400000     -30.45050000     -69.20540000
S      -47.81470000     -31.22000000     -71.62060000
H      -48.50380000     -33.32900000     -72.79590000
