40
Properties=species:S:1:pos:R:3 #=T CELL(abcABC):=T 1.889726e+02=T 90.00000=T Traj:=T positionsangstrom=T Step:=T 0=T Bead:=T pbc="F F F"
C      -46.60140000     -35.41630000     -73.70470000
C      -45.34980000     -35.22270000     -74.23630000
C      -44.21520000     -35.72280000     -73.54240000
C      -44.43890000     -36.45320000     -72.37410000
C      -45.74070000     -36.63470000     -71.87440000
C      -46.84380000     -36.05720000     -72.47620000
H      -47.41870000     -34.84810000     -74.29410000
H      -43.13110000     -35.59080000     -73.82140000
H      -46.03060000     -37.14470000     -70.94510000
H      -47.84540000     -36.00910000     -72.08220000
C      -43.27310000     -36.93540000     -71.63610000
H      -42.50390000     -37.48060000     -72.19380000
H      -43.57620000     -37.52890000     -70.70190000
C      -45.27080000     -34.31490000     -75.40180000
H      -44.56490000     -34.73370000     -76.14020000
H      -46.20180000     -34.45440000     -76.03140000
S      -42.18800000     -35.53720000     -70.94110000
S      -44.77730000     -32.56410000     -74.87550000
C      -43.37020000     -34.82540000     -69.68280000
H      -44.07940000     -35.54370000     -69.32470000
H      -42.74270000     -34.55540000     -68.90640000
C      -45.78570000     -32.26190000     -73.34380000
H      -45.86630000     -33.17440000     -72.78690000
H      -46.76600000     -31.97050000     -73.57740000
C      -45.17980000     -31.19930000     -72.42100000
H      -44.21480000     -31.59150000     -72.09220000
H      -45.03990000     -30.20090000     -72.87840000
C      -44.06200000     -33.58150000     -70.28840000
H      -44.64750000     -33.94920000     -71.14980000
H      -43.31910000     -32.89470000     -70.72480000
C      -45.00930000     -32.75410000     -69.38340000
C      -45.23370000     -33.13450000     -68.08560000
C      -45.84260000     -31.66090000     -69.80870000
H      -44.85540000     -33.98450000     -67.50920000
C      -46.67380000     -31.15180000     -68.79720000
C      -45.99710000     -30.98490000     -71.10420000
C      -47.09480000     -30.13750000     -71.00820000
S      -46.54150000     -32.14990000     -67.33580000
S      -47.72050000     -29.98900000     -69.44840000
H      -47.36010000     -29.45800000     -71.81090000
