40
Properties=species:S:1:pos:R:3 #=T CELL(abcABC):=T 1.889726e+02=T 90.00000=T Traj:=T positionsangstrom=T Step:=T 0=T Bead:=T pbc="F F F"
C      -43.11250000     -32.20470000     -74.33990000
C      -42.96430000     -31.68610000     -73.05040000
C      -42.38210000     -32.41750000     -72.00740000
C      -41.92330000     -33.71700000     -72.22140000
C      -42.05780000     -34.21910000     -73.53800000
C      -42.63650000     -33.46820000     -74.57780000
H      -43.63630000     -31.64470000     -75.13400000
H      -42.29650000     -32.03430000     -70.98390000
H      -41.75680000     -35.27150000     -73.66170000
H      -42.69610000     -33.95420000     -75.57060000
C      -41.44140000     -34.51570000     -71.09330000
H      -41.29420000     -33.94050000     -70.18950000
H      -40.45540000     -35.02590000     -71.29240000
C      -43.35410000     -30.23810000     -72.67590000
H      -42.92560000     -30.11910000     -71.67690000
H      -42.80040000     -29.49770000     -73.33950000
S      -42.46940000     -36.01310000     -70.66660000
S      -45.13990000     -29.82170000     -72.84010000
C      -44.06500000     -35.26480000     -70.10910000
H      -44.46110000     -36.00750000     -69.36710000
H      -43.88430000     -34.28110000     -69.62820000
C      -46.08670000     -31.28900000     -72.25870000
H      -45.95150000     -32.11030000     -72.90130000
H      -47.22870000     -31.03580000     -72.36960000
C      -45.75510000     -31.67810000     -70.81350000
H      -44.90400000     -32.31690000     -70.76590000
H      -45.57020000     -30.81580000     -70.17180000
C      -45.02630000     -35.07870000     -71.26860000
H      -44.98180000     -35.92930000     -71.80530000
H      -44.80630000     -34.23740000     -71.95570000
C      -46.44120000     -34.91700000     -70.74870000
C      -47.10580000     -36.08280000     -70.47080000
C      -47.26290000     -33.80620000     -70.36970000
H      -46.67240000     -37.07450000     -70.71590000
C      -48.50440000     -34.14550000     -69.82410000
C      -47.00050000     -32.41560000     -70.27730000
C      -48.05990000     -31.68780000     -69.81280000
S      -48.73780000     -35.90720000     -69.78720000
S      -49.41840000     -32.70630000     -69.37640000
H      -48.19370000     -30.54140000     -69.79950000
