40
Properties=species:S:1:pos:R:3 #=T CELL(abcABC):=T 1.889726e+02=T 90.00000=T Traj:=T positionsangstrom=T Step:=T 0=T Bead:=T pbc="F F F"
C      -45.27590000     -32.75140000     -73.56320000
C      -44.67220000     -34.04770000     -73.60930000
C      -43.47940000     -34.27370000     -72.96630000
C      -42.75990000     -33.18040000     -72.38730000
C      -43.35290000     -31.89390000     -72.36560000
C      -44.62430000     -31.69170000     -72.93500000
H      -46.18910000     -32.53010000     -74.03700000
H      -43.10880000     -35.27430000     -73.01820000
H      -42.83180000     -31.09480000     -71.86180000
H      -45.18030000     -30.75900000     -72.84900000
C      -41.57610000     -33.68830000     -71.58400000
H      -40.64420000     -33.08470000     -71.67240000
H      -41.30830000     -34.71680000     -71.82030000
C      -45.36060000     -35.25010000     -74.25460000
H      -45.07910000     -35.19420000     -75.29820000
H      -44.84310000     -36.17600000     -74.02200000
S      -42.17430000     -33.69210000     -69.77650000
S      -47.15280000     -35.47430000     -74.18290000
C      -43.50160000     -34.99380000     -69.83600000
H      -43.97920000     -34.90880000     -70.78320000
H      -43.08250000     -35.98950000     -69.61230000
C      -47.64710000     -35.82420000     -72.40390000
H      -47.57990000     -36.95840000     -72.34080000
H      -48.72350000     -35.50390000     -72.22740000
C      -46.83050000     -35.25430000     -71.26730000
H      -47.14540000     -35.67210000     -70.33100000
H      -45.75270000     -35.47120000     -71.40560000
C      -44.66360000     -34.75050000     -68.85180000
H      -44.32540000     -34.82030000     -67.78940000
H      -45.38990000     -35.54210000     -69.06630000
C      -45.26460000     -33.38640000     -69.05030000
C      -44.97660000     -32.33970000     -68.22600000
C      -46.15780000     -33.05800000     -70.17650000
H      -44.40500000     -32.40000000     -67.23900000
C      -46.57470000     -31.72450000     -70.10290000
C      -46.88420000     -33.76510000     -71.12040000
C      -47.74830000     -32.98320000     -71.84540000
S      -45.92210000     -30.98760000     -68.70190000
S      -47.78200000     -31.29980000     -71.20360000
H      -48.40530000     -33.21050000     -72.64110000
