40
Properties=species:S:1:pos:R:3 #=T CELL(abcABC):=T 1.889726e+02=T 90.00000=T Traj:=T positionsangstrom=T Step:=T 0=T Bead:=T pbc="F F F"
C      -42.97630000     -32.20600000     -74.05630000
C      -42.57860000     -31.80650000     -72.77080000
C      -42.20050000     -32.86830000     -71.92680000
C      -42.12840000     -34.19900000     -72.28720000
C      -42.66160000     -34.55090000     -73.55570000
C      -42.91790000     -33.56300000     -74.46810000
H      -43.29800000     -31.44870000     -74.78620000
H      -41.95850000     -32.73230000     -70.87470000
H      -42.85990000     -35.53540000     -73.90430000
H      -43.17340000     -33.74830000     -75.45450000
C      -41.47530000     -35.14020000     -71.39350000
H      -41.01440000     -34.68260000     -70.54240000
H      -40.79840000     -35.80490000     -71.91090000
C      -42.77760000     -30.42560000     -72.28560000
H      -42.74150000     -30.40080000     -71.21160000
H      -42.15100000     -29.70330000     -72.78100000
S      -42.72420000     -36.33850000     -70.47760000
S      -44.49710000     -29.78230000     -72.64110000
C      -44.21500000     -35.18270000     -70.18460000
H      -44.69500000     -35.66980000     -69.28570000
H      -43.92450000     -34.19160000     -69.88070000
C      -45.71160000     -31.15480000     -72.22150000
H      -45.67790000     -31.93420000     -72.96000000
H      -46.73880000     -30.64230000     -72.24840000
C      -45.64900000     -31.60450000     -70.75850000
H      -44.70240000     -32.19690000     -70.64450000
H      -45.52530000     -30.76750000     -70.10010000
C      -45.22120000     -35.16970000     -71.29580000
H      -45.13830000     -36.14490000     -71.76850000
H      -44.90800000     -34.44540000     -72.09020000
C      -46.69780000     -34.87820000     -70.86970000
C      -47.49790000     -35.95920000     -70.70630000
C      -47.35490000     -33.63640000     -70.50350000
H      -47.28910000     -36.96910000     -71.13710000
C      -48.66810000     -33.83260000     -70.05960000
C      -46.86490000     -32.28450000     -70.22500000
C      -47.80720000     -31.48170000     -69.67070000
S      -49.17140000     -35.53030000     -70.24660000
S      -49.29820000     -32.32870000     -69.40180000
H      -47.62480000     -30.47500000     -69.26840000
