40
Properties=species:S:1:pos:R:3 #=T CELL(abcABC):=T 1.889726e+02=T 90.00000=T Traj:=T positionsangstrom=T Step:=T 0=T Bead:=T pbc="F F F"
C      -42.86590000     -31.47420000     -68.85140000
C      -43.75430000     -32.36130000     -68.32810000
C      -43.57290000     -33.71490000     -68.71290000
C      -42.42120000     -34.16680000     -69.34550000
C      -41.44970000     -33.19490000     -69.69860000
C      -41.66730000     -31.86680000     -69.44570000
H      -42.91880000     -30.40730000     -68.71420000
H      -44.22000000     -34.49090000     -68.34410000
H      -40.54250000     -33.62830000     -70.09400000
H      -40.86930000     -31.10420000     -69.51150000
C      -42.23390000     -35.60570000     -69.71460000
H      -42.82080000     -36.34560000     -69.21740000
H      -41.15790000     -35.92370000     -69.48770000
C      -44.97790000     -32.00890000     -67.54770000
H      -45.50760000     -32.85250000     -67.18930000
H      -44.85850000     -31.45040000     -66.69630000
S      -42.45080000     -36.04910000     -71.48930000
S      -46.18540000     -30.91020000     -68.33400000
C      -43.83740000     -34.90890000     -72.04040000
H      -43.60210000     -33.97450000     -71.63120000
H      -43.82350000     -34.97330000     -73.14340000
C      -46.82010000     -31.63210000     -69.85650000
H      -47.71970000     -30.96380000     -70.14480000
H      -47.33600000     -32.65550000     -69.77260000
C      -45.93740000     -31.74760000     -71.16530000
H      -45.42940000     -30.82440000     -71.40570000
H      -45.15990000     -32.52610000     -70.98540000
C      -45.24260000     -35.34510000     -71.63890000
H      -45.46500000     -35.00420000     -70.58900000
H      -45.32020000     -36.42400000     -71.57770000
C      -46.17740000     -34.80480000     -72.71530000
C      -46.73680000     -35.79710000     -73.56870000
C      -46.72110000     -33.50270000     -73.03800000
H      -46.53840000     -36.87420000     -73.56360000
C      -47.70140000     -33.57090000     -74.01780000
C      -46.80600000     -32.24320000     -72.32200000
C      -47.67510000     -31.38000000     -72.88390000
S      -47.86810000     -35.12220000     -74.78110000
S      -48.51960000     -32.02610000     -74.36360000
H      -47.91160000     -30.36570000     -72.48180000
