40
Properties=species:S:1:pos:R:3 #=T CELL(abcABC):=T 1.889726e+02=T 90.00000=T Traj:=T positionsangstrom=T Step:=T 0=T Bead:=T pbc="F F F"
C      -42.76490000     -31.28310000     -69.16140000
C      -43.61560000     -32.14170000     -68.49540000
C      -43.41660000     -33.54180000     -68.64320000
C      -42.40920000     -34.05990000     -69.41280000
C      -41.46230000     -33.15140000     -70.00890000
C      -41.69490000     -31.76140000     -69.89330000
H      -42.83850000     -30.24380000     -69.05410000
H      -44.07190000     -34.31760000     -68.12600000
H      -40.62310000     -33.48600000     -70.60250000
H      -41.04870000     -31.11800000     -70.44060000
C      -42.34430000     -35.51100000     -69.76040000
H      -43.12350000     -36.08560000     -69.22510000
H      -41.41060000     -35.98340000     -69.31870000
C      -44.59710000     -31.58420000     -67.50600000
H      -44.76660000     -32.41590000     -66.87510000
H      -44.09550000     -30.80650000     -66.92620000
S      -42.37080000     -35.84910000     -71.54800000
S      -46.10370000     -30.90630000     -68.47750000
C      -43.84080000     -34.92740000     -72.20140000
H      -43.68150000     -33.86720000     -71.99230000
H      -43.71890000     -35.00510000     -73.26490000
C      -46.44440000     -32.15260000     -69.75790000
H      -47.60790000     -32.30410000     -69.74570000
H      -45.98650000     -33.12760000     -69.44760000
C      -45.89930000     -31.89170000     -71.16620000
H      -45.73810000     -30.82050000     -71.09890000
H      -44.95090000     -32.31720000     -71.46660000
C      -45.21040000     -35.30430000     -71.62650000
H      -45.30120000     -34.59270000     -70.74920000
H      -45.36670000     -36.32340000     -71.22020000
C      -46.30580000     -34.96130000     -72.62620000
C      -46.77420000     -35.84590000     -73.53390000
C      -46.92520000     -33.65130000     -72.85790000
H      -46.43360000     -36.86940000     -73.59510000
C      -47.96830000     -33.69440000     -73.76250000
C      -46.80010000     -32.29820000     -72.25480000
C      -47.72120000     -31.42880000     -72.84800000
S      -48.08710000     -35.24680000     -74.51500000
S      -48.69370000     -32.17760000     -74.15010000
H      -47.88900000     -30.41910000     -72.77330000
