40
Properties=species:S:1:pos:R:3 #=T CELL(abcABC):=T 1.889726e+02=T 90.00000=T Traj:=T positionsangstrom=T Step:=T 0=T Bead:=T pbc="F F F"
C      -42.51920000     -31.07590000     -69.16810000
C      -43.40990000     -31.95270000     -68.51080000
C      -43.38700000     -33.29600000     -68.80840000
C      -42.40700000     -33.87990000     -69.61300000
C      -41.58300000     -32.95220000     -70.35100000
C      -41.66000000     -31.55970000     -70.15160000
H      -42.49180000     -30.05740000     -68.90330000
H      -44.11090000     -33.95790000     -68.22750000
H      -40.85140000     -33.34120000     -71.01900000
H      -40.93550000     -30.97990000     -70.73420000
C      -42.33880000     -35.35770000     -69.82890000
H      -43.10570000     -35.75000000     -69.25100000
H      -41.38470000     -35.71270000     -69.50340000
C      -44.52370000     -31.39690000     -67.55760000
H      -44.80170000     -32.17620000     -66.74320000
H      -44.22720000     -30.49540000     -67.00200000
S      -42.31340000     -35.86690000     -71.62580000
S      -46.08750000     -30.91080000     -68.38860000
C      -43.80530000     -35.01700000     -72.46520000
H      -43.67070000     -33.97560000     -72.68240000
H      -43.91460000     -35.64020000     -73.40150000
C      -46.46880000     -32.32560000     -69.61930000
H      -47.51880000     -32.58380000     -69.67560000
H      -45.94940000     -33.13010000     -69.26930000
C      -46.01620000     -31.98500000     -71.04230000
H      -45.93900000     -30.88060000     -71.22760000
H      -45.00440000     -32.45330000     -71.14590000
C      -45.16000000     -35.36750000     -71.67750000
H      -45.22190000     -34.82140000     -70.73690000
H      -45.03380000     -36.37660000     -71.31250000
C      -46.34230000     -35.08500000     -72.55140000
C      -46.88290000     -36.06010000     -73.34660000
C      -46.97270000     -33.72310000     -72.70140000
H      -46.54600000     -37.08870000     -73.49520000
C      -47.92420000     -33.79650000     -73.75390000
C      -46.92210000     -32.40380000     -72.13530000
C      -47.85390000     -31.50800000     -72.70240000
S      -48.11400000     -35.36370000     -74.44630000
S      -48.75310000     -32.21250000     -74.02440000
H      -47.75350000     -30.48360000     -72.55140000
