40
Properties=species:S:1:pos:R:3 #=T CELL(abcABC):=T 1.889726e+02=T 90.00000=T Traj:=T positionsangstrom=T Step:=T 0=T Bead:=T pbc="F F F"
C      -42.46390000     -32.54720000     -74.05700000
C      -42.47630000     -32.20160000     -72.68560000
C      -42.36130000     -33.20840000     -71.73110000
C      -42.13070000     -34.53320000     -72.06200000
C      -41.95970000     -34.86260000     -73.42230000
C      -42.22380000     -33.89160000     -74.40700000
H      -42.78580000     -31.75860000     -74.72360000
H      -42.44170000     -32.95600000     -70.71500000
H      -41.82070000     -35.89580000     -73.70120000
H      -42.19170000     -34.14320000     -75.48720000
C      -41.96610000     -35.57660000     -70.99480000
H      -41.87650000     -35.13090000     -70.04900000
H      -41.12700000     -36.16420000     -71.15600000
C      -42.56260000     -30.79200000     -72.30100000
H      -42.43540000     -30.59640000     -71.26490000
H      -41.82190000     -30.16740000     -72.83820000
S      -43.40700000     -36.77020000     -70.94880000
S      -44.15430000     -30.01380000     -72.83640000
C      -44.66110000     -35.62750000     -70.22180000
H      -45.42850000     -36.14540000     -69.63430000
H      -44.21350000     -34.94040000     -69.46100000
C      -45.33340000     -31.25470000     -72.15220000
H      -45.32920000     -32.17410000     -72.77670000
H      -46.18760000     -30.77410000     -72.55490000
C      -45.39320000     -31.55870000     -70.67090000
H      -44.63510000     -32.29780000     -70.38850000
H      -45.13040000     -30.64640000     -70.14640000
C      -45.45660000     -34.89380000     -71.41540000
H      -45.57900000     -35.66110000     -72.19480000
H      -44.88660000     -34.06580000     -71.71260000
C      -46.82530000     -34.56190000     -70.93670000
C      -47.88300000     -35.43510000     -71.01730000
C      -47.33580000     -33.30000000     -70.37900000
H      -47.84840000     -36.51360000     -71.28580000
C      -48.65600000     -33.36520000     -69.96710000
C      -46.76810000     -31.98110000     -70.13280000
C      -47.66470000     -31.11900000     -69.55550000
S      -49.42600000     -34.92900000     -70.26760000
S      -49.21370000     -31.89890000     -69.17920000
H      -47.53070000     -30.03010000     -69.42650000
