40
Properties=species:S:1:pos:R:3 #=T CELL(abcABC):=T 1.889726e+02=T 90.00000=T Traj:=T positionsangstrom=T Step:=T 0=T Bead:=T pbc="F F F"
C      -42.77050000     -30.51030000     -69.76790000
C      -43.28820000     -31.57140000     -69.04940000
C      -42.77130000     -32.91690000     -69.32320000
C      -41.96000000     -33.14000000     -70.42240000
C      -41.43140000     -32.05560000     -71.16990000
C      -41.82520000     -30.72600000     -70.77820000
H      -42.98090000     -29.48810000     -69.60760000
H      -43.13150000     -33.81410000     -68.75220000
H      -40.87250000     -32.27710000     -72.09620000
H      -41.47600000     -29.89810000     -71.39310000
C      -41.58260000     -34.59710000     -70.51930000
H      -41.97190000     -35.14970000     -69.63310000
H      -40.45680000     -34.63150000     -70.43800000
C      -44.29920000     -31.35170000     -67.92600000
H      -44.45120000     -32.25150000     -67.27720000
H      -43.83100000     -30.55360000     -67.31980000
S      -42.08230000     -35.53910000     -72.04810000
S      -45.92230000     -30.59750000     -68.54590000
C      -43.76220000     -35.02390000     -72.47830000
H      -43.84710000     -33.96810000     -72.71630000
H      -43.90060000     -35.55210000     -73.46760000
C      -46.61310000     -31.93780000     -69.58110000
H      -47.71340000     -31.77400000     -69.43720000
H      -46.33310000     -32.86780000     -69.13050000
C      -46.21820000     -31.92740000     -71.02930000
H      -46.12890000     -30.89720000     -71.37300000
H      -45.20880000     -32.38570000     -71.17260000
C      -44.83600000     -35.28870000     -71.46110000
H      -44.90520000     -34.58560000     -70.67700000
H      -44.81630000     -36.33520000     -71.08790000
C      -46.19740000     -35.24940000     -72.24180000
C      -46.62310000     -36.36150000     -73.00340000
C      -47.13680000     -34.18300000     -72.32000000
H      -46.04020000     -37.26050000     -73.23600000
C      -48.23540000     -34.45880000     -73.11120000
C      -47.26460000     -32.77850000     -71.83010000
C      -48.45490000     -32.17670000     -72.18920000
S      -48.18990000     -36.06570000     -73.75590000
S      -49.46150000     -33.23960000     -73.19050000
H      -48.85590000     -31.24840000     -71.70550000
