40
Properties=species:S:1:pos:R:3 #=T CELL(abcABC):=T 1.889726e+02=T 90.00000=T Traj:=T positionsangstrom=T Step:=T 0=T Bead:=T pbc="F F F"
C      -45.25760000     -32.24890000     -73.67280000
C      -44.84210000     -33.65170000     -73.75510000
C      -43.54930000     -34.00290000     -73.25800000
C      -42.87060000     -33.08500000     -72.46580000
C      -43.33560000     -31.76940000     -72.33890000
C      -44.45420000     -31.27990000     -72.95500000
H      -46.08890000     -31.95980000     -74.25750000
H      -43.17890000     -34.98880000     -73.54740000
H      -42.78720000     -30.97330000     -71.74650000
H      -44.70400000     -30.30860000     -72.86420000
C      -41.61400000     -33.45600000     -71.84610000
H      -40.95200000     -32.58210000     -71.91620000
H      -41.08720000     -34.21260000     -72.36610000
C      -45.64300000     -34.66450000     -74.52870000
H      -45.65310000     -34.41640000     -75.60950000
H      -45.16920000     -35.60610000     -74.30950000
S      -41.87590000     -33.96740000     -70.05780000
S      -47.42310000     -34.78250000     -74.14470000
C      -43.27540000     -35.12240000     -70.20150000
H      -43.90030000     -35.13650000     -71.13230000
H      -42.88870000     -36.14140000     -70.10310000
C      -47.48200000     -35.87310000     -72.59430000
H      -47.30240000     -36.94210000     -72.85220000
H      -48.49420000     -35.93140000     -72.26950000
C      -46.61820000     -35.46860000     -71.48830000
H      -46.72130000     -36.20390000     -70.66810000
H      -45.58420000     -35.52410000     -71.81830000
C      -44.22800000     -34.81680000     -68.99340000
H      -43.61830000     -34.75580000     -68.05230000
H      -45.02810000     -35.61120000     -68.83500000
C      -44.95550000     -33.54210000     -69.12380000
C      -44.57380000     -32.43430000     -68.44600000
C      -46.20700000     -33.36750000     -69.90570000
H      -43.92450000     -32.40390000     -67.57120000
C      -46.78920000     -32.13990000     -69.60860000
C      -47.00760000     -34.08670000     -70.89660000
C      -48.15260000     -33.47020000     -71.20830000
S      -45.73160000     -31.11050000     -68.69960000
S      -48.24810000     -31.79530000     -70.56280000
H      -48.91430000     -33.67920000     -71.99430000
