40
Properties=species:S:1:pos:R:3 #=T CELL(abcABC):=T 1.889726e+02=T 90.00000=T Traj:=T positionsangstrom=T Step:=T 0=T Bead:=T pbc="F F F"
C      -46.77160000     -34.99160000     -72.95580000
C      -45.58310000     -34.88500000     -73.71680000
C      -44.50850000     -35.69290000     -73.33210000
C      -44.53780000     -36.56550000     -72.18920000
C      -45.73340000     -36.69390000     -71.43020000
C      -46.88160000     -35.90130000     -71.86430000
H      -47.69190000     -34.37010000     -73.22520000
H      -43.60240000     -35.62850000     -73.84180000
H      -45.86000000     -37.49910000     -70.64660000
H      -47.77270000     -36.08070000     -71.28770000
C      -43.32730000     -37.35800000     -71.64270000
H      -42.74120000     -37.76350000     -72.55820000
H      -43.65550000     -38.17400000     -70.87940000
C      -45.56530000     -34.20530000     -75.09210000
H      -44.74600000     -34.65540000     -75.72990000
H      -46.58450000     -34.29790000     -75.51020000
S      -42.26740000     -36.13100000     -70.61710000
S      -45.01420000     -32.42740000     -75.16930000
C      -43.61990000     -35.13400000     -69.66360000
H      -44.39860000     -35.73750000     -69.32230000
H      -43.11160000     -34.85630000     -68.76140000
C      -45.85290000     -31.52970000     -73.84770000
H      -46.79530000     -32.04820000     -73.57200000
H      -46.10840000     -30.52090000     -74.13560000
C      -45.01590000     -31.63410000     -72.51020000
H      -44.60750000     -32.63240000     -72.40320000
H      -44.05970000     -31.07090000     -72.58490000
C      -44.02680000     -33.77570000     -70.32940000
H      -44.44160000     -34.07770000     -71.27430000
H      -43.11830000     -33.19700000     -70.54880000
C      -44.95900000     -32.89570000     -69.51870000
C      -45.29330000     -33.06000000     -68.18690000
C      -45.74640000     -31.79000000     -70.07070000
H      -44.85500000     -33.69030000     -67.42170000
C      -46.50750000     -31.15240000     -69.11510000
C      -45.78790000     -31.14850000     -71.35110000
C      -46.61630000     -30.03150000     -71.36130000
S      -46.46290000     -31.89370000     -67.54470000
S      -47.32690000     -29.77250000     -69.67630000
H      -46.77960000     -29.35350000     -72.14630000
