40
Properties=species:S:1:pos:R:3 #=T CELL(abcABC):=T 1.889726e+02=T 90.00000=T Traj:=T positionsangstrom=T Step:=T 0=T Bead:=T pbc="F F F"
C      -46.30890000     -32.83340000     -73.44810000
C      -45.48160000     -33.93620000     -73.77820000
C      -44.13070000     -33.86620000     -73.41590000
C      -43.51940000     -32.70030000     -72.94120000
C      -44.33550000     -31.51830000     -72.79120000
C      -45.72460000     -31.62580000     -73.06560000
H      -47.35930000     -32.90770000     -73.75180000
H      -43.45300000     -34.73650000     -73.61810000
H      -43.89890000     -30.54490000     -72.57020000
H      -46.36180000     -30.73560000     -72.72240000
C      -42.10750000     -32.71280000     -72.45630000
H      -41.55670000     -31.80990000     -72.66240000
H      -41.45620000     -33.52290000     -72.95400000
C      -45.95820000     -35.27550000     -74.27280000
H      -45.95360000     -35.40070000     -75.41190000
H      -45.31770000     -36.13460000     -73.95090000
S      -41.87130000     -32.99940000     -70.67290000
S      -47.59460000     -35.60170000     -73.64910000
C      -42.65460000     -34.62700000     -70.43750000
H      -43.26950000     -34.89040000     -71.32200000
H      -41.93400000     -35.46890000     -70.33520000
C      -47.12800000     -36.29080000     -71.95580000
H      -46.90290000     -37.35830000     -72.06900000
H      -48.13440000     -36.22690000     -71.49120000
C      -46.10500000     -35.54300000     -71.23480000
H      -45.63060000     -36.10580000     -70.48890000
H      -45.31260000     -35.26320000     -71.87230000
C      -43.61120000     -34.64910000     -69.19360000
H      -42.98650000     -34.76730000     -68.26150000
H      -44.22300000     -35.59920000     -69.19440000
C      -44.51470000     -33.51380000     -69.21070000
C      -44.12370000     -32.32790000     -68.53130000
C      -45.76790000     -33.31960000     -69.89870000
H      -43.20190000     -32.06430000     -67.98980000
C      -46.35050000     -32.09550000     -69.56210000
C      -46.62920000     -34.21780000     -70.61260000
C      -47.82020000     -33.59910000     -70.91090000
S      -45.32820000     -31.01630000     -68.68820000
S      -47.96820000     -31.96920000     -70.28400000
H      -48.60320000     -33.98670000     -71.54640000
