40
Properties=species:S:1:pos:R:3 #=T CELL(abcABC):=T 1.889726e+02=T 90.00000=T Traj:=T positionsangstrom=T Step:=T 0=T Bead:=T pbc="F F F"
C      -45.45570000     -32.54040000     -73.75980000
C      -44.91720000     -33.83770000     -73.95180000
C      -43.63360000     -34.11780000     -73.46880000
C      -42.95600000     -33.08030000     -72.74300000
C      -43.52870000     -31.86520000     -72.46010000
C      -44.86220000     -31.59380000     -72.89890000
H      -46.53100000     -32.33000000     -73.94210000
H      -43.02010000     -34.96150000     -73.81790000
H      -43.09950000     -31.17790000     -71.77880000
H      -45.49570000     -30.66270000     -72.62610000
C      -41.58950000     -33.41680000     -72.07520000
H      -40.95620000     -32.51980000     -72.09820000
H      -41.02640000     -34.28700000     -72.56310000
C      -45.79490000     -34.83360000     -74.71880000
H      -45.96680000     -34.49810000     -75.66230000
H      -45.30020000     -35.77350000     -74.92350000
S      -41.74270000     -33.57660000     -70.25690000
S      -47.51820000     -35.11390000     -73.97730000
C      -42.95820000     -34.97050000     -69.99380000
H      -43.37730000     -35.24090000     -70.98980000
H      -42.51510000     -35.89830000     -69.60300000
C      -47.23400000     -36.07320000     -72.47390000
H      -46.51600000     -36.89870000     -72.71720000
H      -48.21260000     -36.57780000     -72.18760000
C      -46.62780000     -35.39340000     -71.24150000
H      -46.73270000     -36.12620000     -70.45500000
H      -45.54880000     -35.30490000     -71.28310000
C      -44.14390000     -34.71790000     -69.00830000
H      -43.67180000     -34.79280000     -67.95710000
H      -44.88250000     -35.54730000     -69.13680000
C      -44.93220000     -33.50050000     -69.23850000
C      -44.57950000     -32.41440000     -68.46290000
C      -46.20860000     -33.32100000     -69.83010000
H      -43.59760000     -32.28200000     -68.10800000
C      -46.62600000     -31.98700000     -69.67100000
C      -47.06160000     -34.00680000     -70.77400000
C      -48.08460000     -33.27300000     -71.22440000
S      -45.71650000     -31.09150000     -68.53530000
S      -48.19730000     -31.66000000     -70.43960000
H      -48.82050000     -33.77520000     -71.76830000
