40
Properties=species:S:1:pos:R:3 #=T CELL(abcABC):=T 1.889726e+02=T 90.00000=T Traj:=T positionsangstrom=T Step:=T 0=T Bead:=T pbc="F F F"
C      -46.72990000     -32.84350000     -73.43050000
C      -45.86390000     -33.86120000     -73.85360000
C      -44.52240000     -33.71320000     -73.80770000
C      -43.89090000     -32.59370000     -73.20590000
C      -44.76630000     -31.57620000     -72.81590000
C      -46.14960000     -31.70220000     -72.94230000
H      -47.77290000     -32.92830000     -73.52670000
H      -43.93670000     -34.53130000     -74.18810000
H      -44.35550000     -30.63270000     -72.42480000
H      -46.81280000     -30.82560000     -72.62110000
C      -42.38100000     -32.53100000     -73.16080000
H      -42.09010000     -31.56380000     -73.69060000
H      -41.92900000     -33.43900000     -73.67840000
C      -46.50160000     -35.19010000     -74.29690000
H      -47.06110000     -35.06610000     -75.19090000
H      -45.78160000     -35.97230000     -74.45430000
S      -41.69750000     -32.57390000     -71.46810000
S      -47.71330000     -35.83980000     -73.11320000
C      -42.32890000     -34.22140000     -70.85200000
H      -43.18900000     -34.59130000     -71.55700000
H      -41.54880000     -35.02490000     -70.82710000
C      -46.68110000     -36.61200000     -71.68850000
H      -46.04170000     -37.42760000     -72.03590000
H      -47.43280000     -37.19460000     -71.13490000
C      -45.83120000     -35.75210000     -70.74530000
H      -45.51220000     -36.28850000     -69.83550000
H      -44.76640000     -35.54820000     -71.18170000
C      -42.97820000     -34.15240000     -69.50820000
H      -42.26030000     -33.84480000     -68.70240000
H      -43.38080000     -35.15050000     -69.24140000
C      -44.12470000     -33.17020000     -69.43830000
C      -43.89900000     -31.94340000     -68.96690000
C      -45.54870000     -33.44970000     -69.66250000
H      -42.99460000     -31.45980000     -68.62280000
C      -46.27240000     -32.31700000     -69.29010000
C      -46.39250000     -34.42870000     -70.31630000
C      -47.65620000     -34.03850000     -70.36030000
S      -45.35400000     -30.96890000     -68.64630000
S      -47.91170000     -32.45370000     -69.79110000
H      -48.47530000     -34.71240000     -70.62080000
