40
Properties=species:S:1:pos:R:3 #=T CELL(abcABC):=T 1.889726e+02=T 90.00000=T Traj:=T positionsangstrom=T Step:=T 0=T Bead:=T pbc="F F F"
C      -46.37550000     -32.94300000     -73.53500000
C      -45.55210000     -34.02530000     -73.70550000
C      -44.15630000     -33.90370000     -73.49890000
C      -43.59030000     -32.66590000     -73.05240000
C      -44.51960000     -31.68070000     -72.63060000
C      -45.87090000     -31.79070000     -72.94600000
H      -47.40500000     -33.01070000     -73.78450000
H      -43.50350000     -34.78330000     -73.56930000
H      -44.24190000     -30.68250000     -72.25810000
H      -46.61100000     -30.93010000     -72.64330000
C      -42.10760000     -32.46510000     -72.92520000
H      -41.76710000     -31.43770000     -73.12310000
H      -41.54840000     -33.10300000     -73.54970000
C      -46.19480000     -35.25340000     -74.30100000
H      -46.59250000     -34.95270000     -75.26050000
H      -45.53360000     -36.13630000     -74.41210000
S      -41.57670000     -32.70900000     -71.10910000
S      -47.65010000     -35.74370000     -73.30360000
C      -42.35700000     -34.29330000     -70.59310000
H      -42.82630000     -34.76240000     -71.41310000
H      -41.54540000     -34.94700000     -70.29040000
C      -46.77540000     -36.40200000     -71.79170000
H      -46.30940000     -37.32080000     -72.23330000
H      -47.57050000     -36.74050000     -71.07430000
C      -45.76000000     -35.55370000     -71.02550000
H      -45.17900000     -36.19590000     -70.25990000
H      -45.03860000     -35.15360000     -71.70890000
C      -43.32030000     -34.17830000     -69.37110000
H      -42.70590000     -34.06870000     -68.51710000
H      -43.77820000     -35.14840000     -69.26170000
C      -44.36310000     -33.13720000     -69.32670000
C      -44.22170000     -31.87860000     -68.75670000
C      -45.72160000     -33.26860000     -69.95730000
H      -43.21550000     -31.48770000     -68.50540000
C      -46.49750000     -32.14640000     -69.69990000
C      -46.43570000     -34.35310000     -70.40190000
C      -47.77930000     -34.13780000     -70.53370000
S      -45.65860000     -30.94560000     -68.75600000
S      -48.18060000     -32.46610000     -69.97630000
H      -48.53380000     -34.68110000     -71.10860000
