40
Properties=species:S:1:pos:R:3 #=T CELL(abcABC):=T 1.889726e+02=T 90.00000=T Traj:=T positionsangstrom=T Step:=T 0=T Bead:=T pbc="F F F"
C      -46.48660000     -32.88630000     -73.47850000
C      -45.66970000     -33.96290000     -73.71330000
C      -44.29360000     -33.74210000     -73.68570000
C      -43.77160000     -32.48590000     -73.28120000
C      -44.62970000     -31.47760000     -72.87070000
C      -46.00380000     -31.66860000     -72.98810000
H      -47.49350000     -33.05870000     -73.55230000
H      -43.60130000     -34.50910000     -73.99400000
H      -44.18490000     -30.51630000     -72.44270000
H      -46.75520000     -30.91880000     -72.66310000
C      -42.33340000     -32.30760000     -73.21220000
H      -41.95250000     -31.28470000     -73.46050000
H      -41.92280000     -33.08900000     -73.90500000
C      -46.14070000     -35.28780000     -74.18180000
H      -46.53190000     -35.41200000     -75.18840000
H      -45.32330000     -35.99570000     -74.14930000
S      -41.46330000     -32.60030000     -71.57160000
S      -47.50840000     -35.94510000     -73.02320000
C      -42.36480000     -34.05480000     -70.88340000
H      -43.04330000     -34.36250000     -71.74240000
H      -41.56880000     -34.71720000     -70.70400000
C      -46.65250000     -36.69710000     -71.52690000
H      -46.10300000     -37.57060000     -72.00280000
H      -47.40790000     -37.09850000     -70.88150000
C      -45.66410000     -35.78220000     -70.74350000
H      -45.12930000     -36.44870000     -69.94520000
H      -44.91120000     -35.42710000     -71.38180000
C      -43.09000000     -33.97340000     -69.48890000
H      -42.37350000     -33.88520000     -68.67420000
H      -43.61420000     -35.00450000     -69.35430000
C      -44.24330000     -33.02290000     -69.37320000
C      -44.14370000     -31.63970000     -69.04180000
C      -45.63630000     -33.33260000     -69.66120000
H      -43.15580000     -31.19030000     -69.03570000
C      -46.54470000     -32.35100000     -69.47230000
C      -46.33760000     -34.49420000     -70.17770000
C      -47.72630000     -34.35920000     -70.12520000
S      -45.79580000     -30.85270000     -68.90240000
S      -48.25840000     -32.67220000     -69.68400000
H      -48.51500000     -35.06350000     -70.48590000
