40
Properties=species:S:1:pos:R:3 #=T CELL(abcABC):=T 1.889726e+02=T 90.00000=T Traj:=T positionsangstrom=T Step:=T 0=T Bead:=T pbc="F F F"
C      -46.50360000     -32.77440000     -73.54150000
C      -45.59980000     -33.86630000     -73.78100000
C      -44.22500000     -33.73460000     -73.61270000
C      -43.60640000     -32.56410000     -73.06240000
C      -44.52200000     -31.53910000     -72.77290000
C      -45.89920000     -31.64950000     -73.04160000
H      -47.57800000     -32.84690000     -73.71940000
H      -43.59040000     -34.51780000     -74.04560000
H      -44.18440000     -30.71090000     -72.20260000
H      -46.42280000     -30.61370000     -72.82270000
C      -42.10670000     -32.64550000     -72.75870000
H      -41.65820000     -31.69660000     -73.13300000
H      -41.71790000     -33.51840000     -73.31100000
C      -46.13560000     -35.15420000     -74.31100000
H      -46.45970000     -35.00600000     -75.31860000
H      -45.37400000     -35.96230000     -74.40070000
S      -41.62120000     -32.80930000     -70.93860000
S      -47.60670000     -35.85040000     -73.39600000
C      -42.46670000     -34.39750000     -70.47410000
H      -43.04200000     -34.69030000     -71.41520000
H      -41.71430000     -35.16720000     -70.35400000
C      -46.83400000     -36.61140000     -71.86230000
H      -46.29670000     -37.52060000     -72.08230000
H      -47.66180000     -36.92660000     -71.22780000
C      -45.96280000     -35.74050000     -70.92570000
H      -45.83730000     -36.29960000     -70.03420000
H      -44.98350000     -35.51670000     -71.32120000
C      -43.24560000     -34.18800000     -69.20000000
H      -42.51120000     -33.82020000     -68.45150000
H      -43.62940000     -35.14110000     -68.72460000
C      -44.35670000     -33.22960000     -69.29390000
C      -44.08100000     -31.93490000     -68.85390000
C      -45.76360000     -33.37140000     -69.76100000
H      -43.29490000     -31.70340000     -68.11830000
C      -46.46230000     -32.16560000     -69.59880000
C      -46.55040000     -34.36980000     -70.49440000
C      -47.76960000     -33.88570000     -70.80390000
S      -45.53380000     -30.92220000     -68.80900000
S      -48.10000000     -32.35910000     -69.99420000
H      -48.58140000     -34.47630000     -71.35860000
