40
Properties=species:S:1:pos:R:3 #=T CELL(abcABC):=T 1.889726e+02=T 90.00000=T Traj:=T positionsangstrom=T Step:=T 0=T Bead:=T pbc="F F F"
C      -46.77650000     -34.85330000     -73.00760000
C      -45.62250000     -35.03720000     -73.79360000
C      -44.52480000     -35.73500000     -73.33130000
C      -44.65080000     -36.49760000     -72.13630000
C      -45.80990000     -36.41030000     -71.35340000
C      -46.84650000     -35.56990000     -71.79880000
H      -47.68310000     -34.31160000     -73.39980000
H      -43.57820000     -35.77220000     -73.87320000
H      -45.90260000     -36.96010000     -70.44960000
H      -47.74030000     -35.48900000     -71.08460000
C      -43.48260000     -37.24800000     -71.51280000
H      -42.78050000     -37.61960000     -72.26810000
H      -43.80500000     -38.03680000     -70.92360000
C      -45.49630000     -34.38930000     -75.21620000
H      -44.83950000     -34.95930000     -75.87720000
H      -46.41380000     -34.45690000     -75.75600000
S      -42.40860000     -36.10220000     -70.42050000
S      -45.06260000     -32.53610000     -75.30300000
C      -43.56790000     -35.05860000     -69.49530000
H      -44.53290000     -35.61130000     -69.30850000
H      -43.09620000     -34.82310000     -68.47330000
C      -45.91160000     -31.67130000     -73.93210000
H      -46.83440000     -32.14170000     -73.72450000
H      -46.02220000     -30.59040000     -74.23350000
C      -44.99650000     -31.56890000     -72.67020000
H      -44.55100000     -32.57170000     -72.50930000
H      -44.14810000     -30.87630000     -72.76410000
C      -44.07020000     -33.83820000     -70.34090000
H      -44.60450000     -34.16540000     -71.23140000
H      -43.20960000     -33.19450000     -70.65330000
C      -45.05370000     -32.98140000     -69.58030000
C      -45.39530000     -33.25080000     -68.27610000
C      -45.67010000     -31.79290000     -70.10770000
H      -44.91830000     -34.05060000     -67.69240000
C      -46.36590000     -31.15060000     -69.10540000
C      -45.68010000     -31.11060000     -71.38670000
C      -46.42200000     -29.94570000     -71.21510000
S      -46.40280000     -31.99040000     -67.54540000
S      -47.18580000     -29.74620000     -69.69580000
H      -46.53650000     -29.23960000     -72.01070000
