40
Properties=species:S:1:pos:R:3 #=T CELL(abcABC):=T 1.889726e+02=T 90.00000=T Traj:=T positionsangstrom=T Step:=T 0=T Bead:=T pbc="F F F"
C      -46.68050000     -32.69220000     -73.47560000
C      -45.97080000     -33.81970000     -74.00300000
C      -44.57260000     -33.85130000     -73.78400000
C      -43.83890000     -32.71710000     -73.26070000
C      -44.63080000     -31.66310000     -72.73380000
C      -45.97670000     -31.57890000     -72.91770000
H      -47.77770000     -32.61650000     -73.58700000
H      -44.05510000     -34.73320000     -74.14150000
H      -44.14250000     -30.83570000     -72.25510000
H      -46.54540000     -30.69200000     -72.71120000
C      -42.37050000     -32.78900000     -73.23010000
H      -41.86600000     -31.84090000     -73.40710000
H      -41.98340000     -33.61410000     -73.82180000
C      -46.62190000     -35.01540000     -74.51810000
H      -47.12830000     -34.92070000     -75.49120000
H      -45.93530000     -35.84440000     -74.53790000
S      -41.78260000     -33.09750000     -71.39180000
S      -47.94810000     -35.47450000     -73.22850000
C      -42.56720000     -34.69180000     -70.90540000
H      -43.36580000     -34.89940000     -71.55380000
H      -41.80620000     -35.56510000     -70.75350000
C      -47.10660000     -36.29730000     -71.83630000
H      -46.58830000     -37.18340000     -72.22450000
H      -47.93140000     -36.68200000     -71.25780000
C      -46.05530000     -35.54110000     -71.02470000
H      -45.71960000     -36.13220000     -70.14510000
H      -45.06320000     -35.48060000     -71.63300000
C      -43.14320000     -34.57690000     -69.50280000
H      -42.44280000     -34.50920000     -68.65490000
H      -43.66750000     -35.54290000     -69.24700000
C      -44.04470000     -33.43540000     -69.34790000
C      -43.66370000     -32.36630000     -68.60750000
C      -45.45510000     -33.25610000     -69.76000000
H      -42.83860000     -32.57280000     -67.93320000
C      -46.09850000     -32.13920000     -69.24750000
C      -46.35310000     -34.14700000     -70.55070000
C      -47.62080000     -33.62200000     -70.53460000
S      -45.00480000     -31.16530000     -68.34320000
S      -47.78570000     -32.01020000     -69.69190000
H      -48.41410000     -34.12580000     -71.02860000
