40
Properties=species:S:1:pos:R:3 #=T CELL(abcABC):=T 1.889726e+02=T 90.00000=T Traj:=T positionsangstrom=T Step:=T 0=T Bead:=T pbc="F F F"
C      -46.69500000     -32.75940000     -73.53070000
C      -45.83170000     -33.84370000     -73.74460000
C      -44.45510000     -33.65950000     -73.60420000
C      -43.82010000     -32.49440000     -73.21520000
C      -44.72190000     -31.45900000     -72.85570000
C      -46.11140000     -31.55070000     -73.08550000
H      -47.80050000     -32.87640000     -73.59730000
H      -43.81510000     -34.50590000     -73.93620000
H      -44.34560000     -30.55010000     -72.33610000
H      -46.80110000     -30.71460000     -72.76910000
C      -42.34940000     -32.45440000     -73.10590000
H      -42.00120000     -31.50100000     -73.41300000
H      -41.92850000     -33.14230000     -73.78670000
C      -46.43280000     -35.14280000     -74.20450000
H      -47.02980000     -34.96880000     -75.13280000
H      -45.55240000     -35.74350000     -74.59440000
S      -41.78250000     -32.64650000     -71.39110000
S      -47.77020000     -35.93180000     -73.08620000
C      -42.37820000     -34.33740000     -70.92320000
H      -43.09060000     -34.59050000     -71.62630000
H      -41.53990000     -34.96580000     -71.00740000
C      -46.86980000     -36.58520000     -71.52120000
H      -46.45530000     -37.59120000     -71.74520000
H      -47.70000000     -36.66860000     -70.79690000
C      -45.83080000     -35.66120000     -70.92810000
H      -45.44120000     -36.24830000     -70.12660000
H      -45.00270000     -35.51830000     -71.62850000
C      -43.10380000     -34.37000000     -69.52560000
H      -42.30950000     -34.26350000     -68.75600000
H      -43.45870000     -35.32080000     -69.35690000
C      -44.16990000     -33.27000000     -69.36280000
C      -43.86850000     -32.15660000     -68.63580000
C      -45.49560000     -33.36780000     -69.89750000
H      -42.85530000     -31.81320000     -68.39030000
C      -46.17970000     -32.23160000     -69.50410000
C      -46.38630000     -34.34770000     -70.45040000
C      -47.69940000     -34.07670000     -70.42950000
S      -45.27510000     -31.00050000     -68.66340000
S      -47.88180000     -32.39730000     -69.80530000
H      -48.57530000     -34.68500000     -70.67450000
