40
Properties=species:S:1:pos:R:3 #=T CELL(abcABC):=T 1.889726e+02=T 90.00000=T Traj:=T positionsangstrom=T Step:=T 0=T Bead:=T pbc="F F F"
C      -42.98970000     -33.75400000     -74.58960000
C      -42.42840000     -33.48000000     -73.34220000
C      -42.48410000     -34.41970000     -72.28510000
C      -43.03100000     -35.69930000     -72.48560000
C      -43.51010000     -36.01390000     -73.75960000
C      -43.48630000     -35.09660000     -74.84020000
H      -43.12600000     -33.03180000     -75.45400000
H      -42.08340000     -34.10110000     -71.38920000
H      -43.85770000     -36.96780000     -73.98870000
H      -43.85260000     -35.40450000     -75.83460000
C      -43.03600000     -36.68050000     -71.28870000
H      -42.69360000     -36.19420000     -70.35650000
H      -42.25720000     -37.46570000     -71.60000000
C      -42.02200000     -32.04810000     -72.97670000
H      -41.76590000     -31.97910000     -71.87060000
H      -41.11370000     -31.66700000     -73.47810000
S      -44.61500000     -37.46280000     -70.97510000
S      -43.30330000     -30.64090000     -73.42850000
C      -45.48710000     -36.06960000     -70.07770000
H      -46.35460000     -36.41660000     -69.49530000
H      -44.78400000     -35.59730000     -69.32440000
C      -44.15880000     -30.34140000     -71.76220000
H      -44.68170000     -29.40880000     -71.90880000
H      -43.37830000     -30.11510000     -71.04590000
C      -44.91880000     -31.59810000     -71.53070000
H      -45.46850000     -31.85250000     -72.48760000
H      -44.24510000     -32.41930000     -71.41040000
C      -46.06270000     -34.92710000     -70.97110000
H      -46.61270000     -35.42690000     -71.80000000
H      -45.20760000     -34.45680000     -71.38480000
C      -47.05490000     -34.02360000     -70.22940000
C      -48.24300000     -34.48840000     -69.71420000
C      -46.95160000     -32.60130000     -70.01940000
H      -48.55650000     -35.50990000     -69.84390000
C      -48.05650000     -32.07370000     -69.32420000
C      -46.07070000     -31.48820000     -70.52230000
C      -46.55470000     -30.27180000     -70.07880000
S      -49.26710000     -33.24580000     -69.02190000
S      -48.01680000     -30.40080000     -69.06770000
H      -46.11020000     -29.25910000     -70.23590000
