40
Properties=species:S:1:pos:R:3 #=T CELL(abcABC):=T 1.889726e+02=T 90.00000=T Traj:=T positionsangstrom=T Step:=T 0=T Bead:=T pbc="F F F"
C      -42.78100000     -33.77910000     -74.54850000
C      -42.47460000     -33.28130000     -73.25010000
C      -42.68710000     -34.14550000     -72.18930000
C      -43.11080000     -35.50020000     -72.42280000
C      -43.45320000     -35.89930000     -73.74630000
C      -43.41290000     -35.02360000     -74.76690000
H      -42.48310000     -33.22800000     -75.31430000
H      -42.49610000     -33.95220000     -71.09010000
H      -43.73140000     -36.99750000     -73.93980000
H      -43.46620000     -35.35250000     -75.76310000
C      -43.27370000     -36.49410000     -71.28530000
H      -43.20070000     -35.97660000     -70.32880000
H      -42.50680000     -37.26140000     -71.32190000
C      -41.86260000     -31.90440000     -73.07390000
H      -41.35030000     -31.80130000     -72.22070000
H      -41.12960000     -31.78770000     -73.92070000
S      -44.79980000     -37.51180000     -71.17750000
S      -43.17730000     -30.67310000     -73.58430000
C      -46.05650000     -36.32890000     -70.41900000
H      -46.97120000     -36.97320000     -70.43960000
H      -45.75880000     -36.15460000     -69.41130000
C      -44.40900000     -30.59270000     -72.28580000
H      -45.15970000     -29.91610000     -72.76770000
H      -43.97390000     -30.01600000     -71.42460000
C      -45.07220000     -31.85710000     -71.67290000
H      -45.40940000     -32.43110000     -72.52440000
H      -44.24000000     -32.37370000     -71.23720000
C      -46.33190000     -34.97680000     -71.09990000
H      -46.93830000     -35.10990000     -71.93880000
H      -45.46800000     -34.36870000     -71.28930000
C      -47.11080000     -34.09510000     -70.10240000
C      -48.10860000     -34.52740000     -69.24700000
C      -46.89590000     -32.63120000     -69.98240000
H      -48.53170000     -35.54440000     -69.15220000
C      -47.82940000     -32.09460000     -69.09650000
C      -46.15990000     -31.57740000     -70.64020000
C      -46.59060000     -30.32110000     -70.37270000
S      -48.83460000     -33.21680000     -68.30130000
S      -47.90150000     -30.32200000     -69.21930000
H      -46.08970000     -29.41420000     -70.70990000
