40
Properties=species:S:1:pos:R:3 #=T CELL(abcABC):=T 1.889726e+02=T 90.00000=T Traj:=T positionsangstrom=T Step:=T 0=T Bead:=T pbc="F F F"
C      -46.43250000     -32.23470000     -73.29550000
C      -45.84170000     -33.42370000     -73.74510000
C      -44.44400000     -33.56510000     -73.71060000
C      -43.62880000     -32.52620000     -73.25200000
C      -44.27400000     -31.36730000     -72.71380000
C      -45.61920000     -31.20290000     -72.85130000
H      -47.48520000     -32.07920000     -73.27800000
H      -43.93740000     -34.45210000     -74.10800000
H      -43.63350000     -30.68720000     -72.12980000
H      -46.08240000     -30.25330000     -72.59260000
C      -42.13570000     -32.71150000     -73.24310000
H      -41.72910000     -31.68780000     -73.38230000
H      -41.81980000     -33.26850000     -74.11590000
C      -46.70000000     -34.57850000     -74.33860000
H      -47.11050000     -34.12850000     -75.25530000
H      -46.00980000     -35.48750000     -74.55240000
S      -41.52360000     -33.35350000     -71.58730000
S      -48.12740000     -34.98940000     -73.21950000
C      -42.62410000     -34.74620000     -71.20290000
H      -43.50470000     -34.66770000     -71.94470000
H      -42.19800000     -35.71040000     -71.33220000
C      -47.35510000     -36.20480000     -72.04860000
H      -47.08880000     -37.11070000     -72.55380000
H      -48.24050000     -36.48720000     -71.49370000
C      -46.19060000     -35.64320000     -71.20450000
H      -46.03120000     -36.45800000     -70.41460000
H      -45.39390000     -35.42040000     -71.87650000
C      -43.02890000     -34.74520000     -69.78480000
H      -42.20360000     -34.52200000     -69.14380000
H      -43.49260000     -35.67540000     -69.50280000
C      -44.16690000     -33.67760000     -69.36210000
C      -43.80940000     -32.55480000     -68.63960000
C      -45.60580000     -33.59540000     -69.71720000
H      -42.98130000     -32.51200000     -67.97060000
C      -46.18790000     -32.46810000     -69.14210000
C      -46.56790000     -34.35450000     -70.46480000
C      -47.85590000     -33.87660000     -70.37850000
S      -45.10950000     -31.41600000     -68.33450000
S      -47.86130000     -32.35320000     -69.49960000
H      -48.73020000     -34.20700000     -70.93620000
