40
Properties=species:S:1:pos:R:3 #=T CELL(abcABC):=T 1.889726e+02=T 90.00000=T Traj:=T positionsangstrom=T Step:=T 0=T Bead:=T pbc="F F F"
C      -43.25920000     -33.52050000     -74.27950000
C      -42.53100000     -33.32230000     -73.09640000
C      -42.34760000     -34.34400000     -72.11120000
C      -42.92490000     -35.58150000     -72.40390000
C      -43.56470000     -35.74820000     -73.62490000
C      -43.70990000     -34.76210000     -74.58500000
H      -43.39510000     -32.67950000     -74.92290000
H      -41.76450000     -34.25230000     -71.20120000
H      -43.96710000     -36.76740000     -73.82210000
H      -44.19850000     -35.03220000     -75.58030000
C      -42.78950000     -36.69140000     -71.44400000
H      -42.09420000     -36.38980000     -70.68500000
H      -42.36940000     -37.58850000     -71.91000000
C      -41.99290000     -31.95760000     -72.82690000
H      -41.72730000     -31.70350000     -71.78360000
H      -40.96820000     -31.88380000     -73.19170000
S      -44.34010000     -37.28280000     -70.66820000
S      -43.10430000     -30.67930000     -73.53750000
C      -45.25680000     -35.83090000     -69.94370000
H      -45.84810000     -36.25180000     -69.14000000
H      -44.42870000     -35.16280000     -69.57270000
C      -44.39970000     -30.50740000     -72.13430000
H      -45.13460000     -29.73700000     -72.47100000
H      -43.95250000     -30.00980000     -71.27860000
C      -45.23410000     -31.81040000     -71.87610000
H      -45.80430000     -31.98340000     -72.85590000
H      -44.59660000     -32.72500000     -71.67140000
C      -46.12980000     -35.05660000     -70.96030000
H      -46.69520000     -35.80120000     -71.66880000
H      -45.51900000     -34.57220000     -71.67390000
C      -47.17460000     -34.11910000     -70.36250000
C      -48.37440000     -34.63370000     -69.84590000
C      -47.00130000     -32.66280000     -70.17710000
H      -48.76860000     -35.62480000     -69.85920000
C      -48.07420000     -32.21930000     -69.44430000
C      -46.15390000     -31.59250000     -70.69960000
C      -46.58390000     -30.41970000     -70.14790000
S      -49.30240000     -33.38040000     -69.05770000
S      -48.05940000     -30.50720000     -69.14410000
H      -46.12610000     -29.46550000     -70.36760000
