40
Properties=species:S:1:pos:R:3 #=T CELL(abcABC):=T 1.889726e+02=T 90.00000=T Traj:=T positionsangstrom=T Step:=T 0=T Bead:=T pbc="F F F"
C      -46.46310000     -31.96510000     -72.87570000
C      -45.85980000     -33.03710000     -73.55570000
C      -44.51570000     -33.10680000     -73.51800000
C      -43.62950000     -32.19500000     -72.88740000
C      -44.28490000     -31.18020000     -72.07530000
C      -45.67660000     -31.08890000     -72.08220000
H      -47.52170000     -31.77660000     -72.83980000
H      -43.98590000     -33.91220000     -74.14150000
H      -43.69590000     -30.55250000     -71.40190000
H      -46.16050000     -30.30330000     -71.62680000
C      -42.05850000     -32.47470000     -72.91020000
H      -41.48100000     -31.53680000     -72.85710000
H      -41.67100000     -33.01870000     -73.84770000
C      -46.69390000     -34.04400000     -74.31350000
H      -46.84870000     -33.58440000     -75.36780000
H      -46.11260000     -34.99990000     -74.54490000
S      -41.56110000     -33.45330000     -71.39580000
S      -48.31720000     -34.44850000     -73.59970000
C      -42.63070000     -34.94420000     -71.57220000
H      -43.41100000     -34.79550000     -72.35480000
H      -42.02720000     -35.87690000     -71.88360000
C      -47.83750000     -35.92250000     -72.58880000
H      -47.48920000     -36.63890000     -73.31530000
H      -48.61900000     -36.32690000     -71.99050000
C      -46.66420000     -35.70920000     -71.60260000
H      -46.34120000     -36.66790000     -71.11130000
H      -45.64750000     -35.52950000     -72.18930000
C      -43.35280000     -35.28460000     -70.27640000
H      -42.52380000     -35.69080000     -69.54710000
H      -43.93360000     -36.19590000     -70.42820000
C      -44.14730000     -34.16300000     -69.53910000
C      -43.56770000     -33.26290000     -68.73920000
C      -45.56470000     -33.91580000     -69.87020000
H      -42.53650000     -33.23260000     -68.34180000
C      -46.01720000     -32.80910000     -69.13880000
C      -46.72840000     -34.46520000     -70.65440000
C      -47.85320000     -33.70850000     -70.46990000
S      -44.72010000     -32.07540000     -68.27820000
S      -47.58290000     -32.21820000     -69.45950000
H      -48.84650000     -33.90280000     -70.92000000
