40
Properties=species:S:1:pos:R:3 #=T CELL(abcABC):=T 1.889726e+02=T 90.00000=T Traj:=T positionsangstrom=T Step:=T 0=T Bead:=T pbc="F F F"
C      -45.31280000     -36.76570000     -69.16790000
C      -44.80980000     -35.52860000     -68.79680000
C      -43.60080000     -35.04700000     -69.43110000
C      -43.11200000     -35.70800000     -70.53820000
C      -43.95380000     -36.73750000     -71.09160000
C      -44.96830000     -37.32110000     -70.39330000
H      -45.96390000     -37.36790000     -68.48360000
H      -43.07960000     -34.13570000     -69.21010000
H      -43.61270000     -37.14550000     -72.09980000
H      -45.57810000     -38.11690000     -70.76630000
C      -41.96020000     -35.28590000     -71.39250000
H      -41.18330000     -35.97910000     -71.54260000
H      -41.38330000     -34.40220000     -70.98420000
C      -45.26930000     -34.86020000     -67.58480000
H      -46.38770000     -34.93600000     -67.45600000
H      -44.74730000     -35.28500000     -66.74180000
S      -42.38150000     -34.99910000     -73.21220000
S      -44.82590000     -33.07070000     -67.31370000
C      -43.52330000     -33.55870000     -73.20500000
H      -43.23950000     -32.70370000     -72.57590000
H      -43.43280000     -33.18050000     -74.21480000
C      -45.88740000     -32.15280000     -68.48350000
H      -45.84530000     -31.05550000     -68.30900000
H      -46.94470000     -32.36070000     -68.33290000
C      -45.45470000     -32.33680000     -69.99300000
H      -44.41200000     -32.07540000     -70.14590000
H      -45.50420000     -33.39250000     -70.17620000
C      -44.96000000     -34.06530000     -72.86010000
H      -44.98420000     -34.38790000     -71.80230000
H      -45.13810000     -35.07300000     -73.28910000
C      -46.03200000     -33.10670000     -73.27170000
C      -46.53380000     -32.94150000     -74.52930000
C      -46.47610000     -32.01740000     -72.39740000
H      -46.38670000     -33.71310000     -75.30600000
C      -47.36280000     -31.15220000     -73.12650000
C      -46.35540000     -31.62280000     -71.01110000
C      -47.06460000     -30.48350000     -70.74940000
S      -47.53260000     -31.52260000     -74.83690000
S      -47.90360000     -29.80220000     -72.22160000
H      -47.14870000     -29.97940000     -69.80980000
