40
Properties=species:S:1:pos:R:3 #=T CELL(abcABC):=T 1.889726e+02=T 90.00000=T Traj:=T positionsangstrom=T Step:=T 0=T Bead:=T pbc="F F F"
C      -42.52870000     -34.09560000     -74.55710000
C      -42.39380000     -33.67820000     -73.23070000
C      -42.73570000     -34.58800000     -72.17010000
C      -43.03570000     -35.93790000     -72.36160000
C      -43.19050000     -36.27020000     -73.71360000
C      -42.89820000     -35.43300000     -74.78840000
H      -42.27730000     -33.50380000     -75.36760000
H      -42.76950000     -34.29430000     -71.18220000
H      -43.46270000     -37.36390000     -73.89320000
H      -43.00850000     -35.89420000     -75.77400000
C      -43.48440000     -36.93740000     -71.27700000
H      -43.29180000     -36.45400000     -70.34420000
H      -42.81370000     -37.80470000     -71.27260000
C      -42.03900000     -32.33350000     -72.79270000
H      -42.14930000     -32.34030000     -71.68540000
H      -41.08230000     -31.94740000     -72.87410000
S      -45.23700000     -37.34450000     -71.47800000
S      -43.10410000     -30.93740000     -73.42480000
C      -46.09990000     -36.20480000     -70.38700000
H      -47.09550000     -36.46790000     -70.32860000
H      -45.75190000     -36.26490000     -69.33210000
C      -44.24340000     -30.45830000     -72.14530000
H      -44.72620000     -29.57410000     -72.53470000
H      -43.69510000     -30.21030000     -71.22330000
C      -45.16530000     -31.61100000     -71.73190000
H      -45.55520000     -32.11320000     -72.65790000
H      -44.65980000     -32.34820000     -71.19370000
C      -46.05710000     -34.73620000     -70.84280000
H      -46.43780000     -34.66560000     -71.86030000
H      -44.99150000     -34.46580000     -70.84380000
C      -46.88570000     -33.80440000     -69.95260000
C      -47.74800000     -34.30390000     -68.92760000
C      -46.98320000     -32.36300000     -70.06700000
H      -47.81690000     -35.27930000     -68.56380000
C      -47.95300000     -31.81950000     -69.26000000
C      -46.35680000     -31.30520000     -70.87090000
C      -46.94290000     -30.07300000     -70.67570000
S      -48.49270000     -32.95770000     -68.09600000
S      -48.23300000     -30.08870000     -69.53460000
H      -46.54750000     -29.24520000     -71.24090000
