40
Properties=species:S:1:pos:R:3 #=T CELL(abcABC):=T 1.889726e+02=T 90.00000=T Traj:=T positionsangstrom=T Step:=T 0=T Bead:=T pbc="F F F"
C      -45.88250000     -31.01200000     -72.42520000
C      -45.79030000     -31.93450000     -73.50750000
C      -44.54600000     -32.59760000     -73.61030000
C      -43.45900000     -32.46470000     -72.78080000
C      -43.58140000     -31.66810000     -71.62410000
C      -44.79180000     -30.98130000     -71.50670000
H      -46.68200000     -30.35660000     -72.38440000
H      -44.49860000     -33.33500000     -74.34770000
H      -42.87200000     -31.72360000     -70.79910000
H      -44.84690000     -30.31190000     -70.58790000
C      -42.16330000     -33.27780000     -72.97110000
H      -41.24170000     -32.63300000     -73.00670000
H      -42.24200000     -33.87810000     -73.95940000
C      -46.91640000     -32.25350000     -74.41230000
H      -47.41220000     -31.36620000     -74.87620000
H      -46.58710000     -32.96300000     -75.24990000
S      -41.83120000     -34.39950000     -71.54310000
S      -48.48140000     -33.10840000     -73.63580000
C      -43.14770000     -35.64210000     -71.99150000
H      -43.72720000     -35.06430000     -72.66410000
H      -42.80550000     -36.62260000     -72.35270000
C      -48.12870000     -34.88740000     -73.05900000
H      -47.93150000     -35.48170000     -74.01630000
H      -49.12110000     -35.20670000     -72.70740000
C      -46.91720000     -35.08940000     -72.12300000
H      -46.97180000     -36.13630000     -71.71300000
H      -46.08240000     -35.00090000     -72.80340000
C      -43.97610000     -35.99120000     -70.67610000
H      -43.22160000     -36.52010000     -70.07080000
H      -44.75330000     -36.66170000     -71.01320000
C      -44.42380000     -34.83710000     -69.86870000
C      -43.69960000     -34.45080000     -68.79790000
C      -45.66720000     -34.12960000     -70.01570000
H      -42.79080000     -34.99010000     -68.57020000
C      -45.78620000     -33.15860000     -69.03780000
C      -46.86090000     -34.18330000     -70.89260000
C      -47.84830000     -33.33470000     -70.43770000
S      -44.41130000     -33.01290000     -68.01790000
S      -47.32480000     -32.29800000     -69.03290000
H      -48.79820000     -32.93920000     -70.87960000
