40
Properties=species:S:1:pos:R:3 #=T CELL(abcABC):=T 1.889726e+02=T 90.00000=T Traj:=T positionsangstrom=T Step:=T 0=T Bead:=T pbc="F F F"
C      -42.51380000     -33.95480000     -74.41070000
C      -42.46500000     -33.61890000     -73.07710000
C      -42.79250000     -34.57500000     -72.11780000
C      -43.19550000     -35.86750000     -72.42740000
C      -43.27180000     -36.13390000     -73.80660000
C      -42.87540000     -35.24460000     -74.78030000
H      -42.41550000     -33.18310000     -75.18520000
H      -42.70160000     -34.32850000     -71.01720000
H      -43.61130000     -37.15160000     -74.10450000
H      -42.95160000     -35.52740000     -75.84400000
C      -43.41960000     -36.89710000     -71.27830000
H      -43.18590000     -36.45550000     -70.26720000
H      -42.94750000     -37.86600000     -71.42990000
C      -41.95800000     -32.21450000     -72.79100000
H      -41.88560000     -32.04300000     -71.70650000
H      -40.96690000     -32.08130000     -73.35410000
S      -45.26370000     -37.43080000     -71.35440000
S      -42.96550000     -30.83730000     -73.55650000
C      -46.11480000     -36.17390000     -70.32290000
H      -47.18850000     -36.52280000     -70.29730000
H      -45.62250000     -36.35150000     -69.35420000
C      -44.35350000     -30.56060000     -72.31310000
H      -44.88940000     -29.60970000     -72.59920000
H      -43.88260000     -30.28770000     -71.36390000
C      -45.44050000     -31.64020000     -72.07820000
H      -46.08110000     -31.72280000     -73.01320000
H      -44.92040000     -32.63990000     -71.90870000
C      -46.05040000     -34.78460000     -70.83460000
H      -46.35590000     -34.78680000     -71.93150000
H      -45.04910000     -34.30120000     -70.86530000
C      -46.85910000     -33.85400000     -69.95910000
C      -47.63290000     -34.37300000     -68.90880000
C      -46.97940000     -32.40110000     -70.13910000
H      -47.70490000     -35.40070000     -68.61940000
C      -47.85720000     -31.86970000     -69.21100000
C      -46.37570000     -31.34650000     -70.92470000
C      -46.85910000     -30.09230000     -70.55170000
S      -48.66290000     -33.10580000     -68.24810000
S      -48.04780000     -30.11060000     -69.25250000
H      -46.56010000     -29.19050000     -71.03960000
