40
Properties=species:S:1:pos:R:3 #=T CELL(abcABC):=T 1.889726e+02=T 90.00000=T Traj:=T positionsangstrom=T Step:=T 0=T Bead:=T pbc="F F F"
C      -45.78840000     -31.20540000     -72.69090000
C      -45.66310000     -32.21080000     -73.62800000
C      -44.46210000     -32.79870000     -73.75500000
C      -43.38400000     -32.60620000     -72.80960000
C      -43.55240000     -31.67590000     -71.77960000
C      -44.78500000     -30.96870000     -71.69130000
H      -46.72720000     -30.70480000     -72.56020000
H      -44.24150000     -33.48720000     -74.49990000
H      -42.72500000     -31.54680000     -71.05770000
H      -45.04220000     -30.34600000     -70.82590000
C      -42.09780000     -33.31000000     -73.07350000
H      -41.25780000     -32.57670000     -72.92600000
H      -42.00780000     -33.68070000     -74.08570000
C      -46.81330000     -32.41510000     -74.60560000
H      -47.11960000     -31.45550000     -75.09270000
H      -46.79300000     -33.10260000     -75.39620000
S      -41.80310000     -34.60600000     -71.84610000
S      -48.30390000     -32.87750000     -73.61290000
C      -43.35330000     -35.59540000     -71.97410000
H      -44.19330000     -35.05520000     -72.50480000
H      -43.29000000     -36.60630000     -72.36510000
C      -48.11060000     -34.69030000     -72.98350000
H      -48.16670000     -35.30250000     -73.88520000
H      -49.07410000     -34.90230000     -72.51370000
C      -47.03100000     -35.02370000     -72.06150000
H      -47.21420000     -36.06820000     -71.80170000
H      -46.09080000     -34.97070000     -72.63330000
C      -43.83600000     -35.87430000     -70.51170000
H      -43.03000000     -36.24970000     -69.83040000
H      -44.65940000     -36.59860000     -70.50910000
C      -44.38130000     -34.71220000     -69.70300000
C      -43.67810000     -34.13960000     -68.73530000
C      -45.68930000     -34.11900000     -69.90200000
H      -42.81470000     -34.61090000     -68.19470000
C      -45.89650000     -33.22970000     -68.84710000
C      -46.83190000     -34.13330000     -70.81720000
C      -47.85430000     -33.31020000     -70.34810000
S      -44.59380000     -32.94720000     -67.77650000
S      -47.46960000     -32.36880000     -68.93950000
H      -48.76700000     -33.04870000     -70.92370000
