40
Properties=species:S:1:pos:R:3 #=T CELL(abcABC):=T 1.889726e+02=T 90.00000=T Traj:=T positionsangstrom=T Step:=T 0=T Bead:=T pbc="F F F"
C      -45.85560000     -31.21390000     -72.44950000
C      -45.75400000     -32.11390000     -73.45440000
C      -44.49250000     -32.67340000     -73.74090000
C      -43.39360000     -32.59930000     -72.80880000
C      -43.61820000     -31.80130000     -71.69840000
C      -44.74430000     -30.95670000     -71.61540000
H      -46.71460000     -30.50840000     -72.33180000
H      -44.34880000     -33.27400000     -74.71580000
H      -42.78180000     -31.74420000     -71.00340000
H      -44.67530000     -30.12010000     -70.93530000
C      -42.16340000     -33.30810000     -73.09150000
H      -41.24150000     -32.66570000     -73.22270000
H      -42.24000000     -33.86510000     -74.03860000
C      -46.89000000     -32.42250000     -74.45750000
H      -47.18970000     -31.52980000     -75.00870000
H      -46.67740000     -33.36570000     -74.98710000
S      -41.64040000     -34.61230000     -71.76350000
S      -48.48220000     -32.96840000     -73.55000000
C      -43.15780000     -35.66870000     -71.83380000
H      -43.93990000     -35.28310000     -72.56420000
H      -42.86610000     -36.61050000     -72.29850000
C      -48.10470000     -34.65770000     -73.01250000
H      -48.16300000     -35.28040000     -73.94910000
H      -48.95140000     -34.98840000     -72.31790000
C      -46.78830000     -34.90440000     -72.21540000
H      -46.78280000     -35.99520000     -72.03250000
H      -45.86200000     -34.72910000     -72.84010000
C      -43.91190000     -35.91160000     -70.50090000
H      -43.28020000     -36.50190000     -69.88190000
H      -44.73710000     -36.60960000     -70.82740000
C      -44.39160000     -34.70180000     -69.81830000
C      -43.76770000     -34.24550000     -68.71070000
C      -45.60670000     -33.95880000     -70.03390000
H      -42.91530000     -34.67570000     -68.26030000
C      -45.82210000     -32.99250000     -69.00080000
C      -46.75150000     -34.05850000     -70.96490000
C      -47.85710000     -33.34960000     -70.52380000
S      -44.62400000     -32.95100000     -67.84120000
S      -47.50860000     -32.42660000     -68.99420000
H      -48.78980000     -33.24430000     -71.05070000
