40
Properties=species:S:1:pos:R:3 #=T CELL(abcABC):=T 1.889726e+02=T 90.00000=T Traj:=T positionsangstrom=T Step:=T 0=T Bead:=T pbc="F F F"
C      -45.91950000     -31.24700000     -72.53720000
C      -45.64310000     -32.19800000     -73.53100000
C      -44.33530000     -32.75500000     -73.59590000
C      -43.39110000     -32.48040000     -72.58800000
C      -43.70210000     -31.55500000     -71.59410000
C      -44.90040000     -30.81240000     -71.62270000
H      -46.83210000     -30.73080000     -72.33210000
H      -44.14700000     -33.37260000     -74.48170000
H      -43.02620000     -31.33830000     -70.76380000
H      -45.21660000     -30.04250000     -70.91480000
C      -42.01430000     -33.04120000     -72.76390000
H      -41.32700000     -32.31930000     -72.33980000
H      -41.72300000     -33.19040000     -73.79550000
C      -46.69240000     -32.65510000     -74.49920000
H      -47.01650000     -31.91910000     -75.21130000
H      -46.40990000     -33.58440000     -74.95300000
S      -41.75240000     -34.56450000     -71.76180000
S      -48.36670000     -32.99100000     -73.69420000
C      -43.36510000     -35.48470000     -72.24270000
H      -44.00640000     -34.73360000     -72.82480000
H      -43.09670000     -36.38820000     -72.83190000
C      -48.34200000     -34.61350000     -72.81010000
H      -48.47680000     -35.40960000     -73.54760000
H      -49.17960000     -34.62090000     -72.15590000
C      -47.12730000     -34.90380000     -72.02390000
H      -47.07920000     -35.96220000     -71.79320000
H      -46.25910000     -34.67230000     -72.66580000
C      -44.13340000     -35.90160000     -70.96080000
H      -43.58950000     -36.62040000     -70.31990000
H      -44.99750000     -36.48540000     -71.37330000
C      -44.54030000     -34.83150000     -70.03140000
C      -43.75120000     -34.59970000     -68.93740000
C      -45.73760000     -34.04210000     -69.98370000
H      -42.68410000     -34.82350000     -68.86220000
C      -45.74440000     -33.07200000     -68.98500000
C      -46.93430000     -34.04500000     -70.78840000
C      -47.84700000     -33.18870000     -70.27300000
S      -44.39930000     -33.27400000     -67.91920000
S      -47.29220000     -32.22720000     -68.84380000
H      -48.72440000     -32.97220000     -70.81110000
