40
Properties=species:S:1:pos:R:3 #=T CELL(abcABC):=T 1.889726e+02=T 90.00000=T Traj:=T positionsangstrom=T Step:=T 0=T Bead:=T pbc="F F F"
C      -42.84190000     -34.20930000     -74.19970000
C      -42.60180000     -33.52370000     -72.97010000
C      -42.65020000     -34.27480000     -71.80950000
C      -42.78250000     -35.63460000     -71.80710000
C      -43.02610000     -36.27900000     -73.05030000
C      -43.02570000     -35.55720000     -74.26320000
H      -42.82820000     -33.67080000     -75.11710000
H      -42.60000000     -33.78740000     -70.83230000
H      -43.18250000     -37.34370000     -72.86160000
H      -43.13520000     -36.09270000     -75.18060000
C      -42.82040000     -36.50910000     -70.60360000
H      -42.53300000     -35.92040000     -69.73190000
H      -42.12240000     -37.28850000     -70.60440000
C      -42.31810000     -32.06210000     -72.84060000
H      -42.48420000     -31.69700000     -71.79050000
H      -41.31260000     -31.84730000     -73.08300000
S      -44.53070000     -37.29480000     -70.26020000
S      -43.34430000     -31.09820000     -74.04590000
C      -45.59110000     -35.77570000     -69.76880000
H      -46.26320000     -36.17950000     -69.01140000
H      -44.87320000     -35.20880000     -69.24520000
C      -44.73600000     -30.67260000     -72.97330000
H      -45.41400000     -30.08060000     -73.64200000
H      -44.36630000     -30.02400000     -72.20690000
C      -45.38680000     -31.87300000     -72.28510000
H      -46.04640000     -32.40680000     -72.97350000
H      -44.68400000     -32.63910000     -71.96860000
C      -46.14630000     -34.92510000     -70.89870000
H      -46.64810000     -35.60790000     -71.57000000
H      -45.42000000     -34.38060000     -71.50470000
C      -47.12870000     -33.94400000     -70.33730000
C      -48.07110000     -34.33060000     -69.44310000
C      -47.08120000     -32.49500000     -70.39300000
H      -48.35050000     -35.33340000     -69.09150000
C      -48.01890000     -31.86260000     -69.67510000
C      -46.28870000     -31.45910000     -71.13800000
C      -46.67520000     -30.22000000     -70.84090000
S      -48.97200000     -33.00290000     -68.71120000
S      -48.04100000     -30.10630000     -69.70370000
H      -46.20480000     -29.31570000     -71.20970000
