40
Properties=species:S:1:pos:R:3 #=T CELL(abcABC):=T 1.889726e+02=T 90.00000=T Traj:=T positionsangstrom=T Step:=T 0=T Bead:=T pbc="F F F"
C      -45.51090000     -36.62490000     -69.26260000
C      -44.90490000     -35.38110000     -68.94100000
C      -43.67610000     -35.03760000     -69.49020000
C      -43.18450000     -35.80810000     -70.57950000
C      -43.86000000     -36.93870000     -70.96420000
C      -44.97080000     -37.43980000     -70.25780000
H      -46.43520000     -36.94490000     -68.82150000
H      -43.12720000     -34.22970000     -69.11710000
H      -43.47250000     -37.42440000     -71.91940000
H      -45.34750000     -38.38600000     -70.59470000
C      -42.04650000     -35.17370000     -71.44000000
H      -41.04320000     -35.71470000     -71.40570000
H      -41.88070000     -34.15260000     -71.03270000
C      -45.32610000     -34.64070000     -67.67550000
H      -46.36540000     -34.79190000     -67.54700000
H      -44.82950000     -35.18120000     -66.76580000
S      -42.24860000     -35.05160000     -73.30810000
S      -44.80750000     -32.86670000     -67.41580000
C      -43.53850000     -33.78510000     -73.34900000
H      -43.21340000     -32.83510000     -72.75510000
H      -43.71790000     -33.47260000     -74.33880000
C      -45.90570000     -32.07740000     -68.59640000
H      -45.93880000     -31.03750000     -68.25540000
H      -46.89310000     -32.47260000     -68.57270000
C      -45.28870000     -32.20140000     -70.01260000
H      -44.26280000     -31.78150000     -70.10580000
H      -45.26460000     -33.20430000     -70.30540000
C      -44.96710000     -34.32300000     -72.92500000
H      -44.98330000     -34.63960000     -71.88370000
H      -45.30630000     -35.16530000     -73.54190000
C      -45.98300000     -33.09660000     -73.18090000
C      -46.49820000     -33.02920000     -74.46270000
C      -46.44240000     -31.99570000     -72.37280000
H      -46.25850000     -33.67110000     -75.29930000
C      -47.35150000     -31.16060000     -73.03670000
C      -46.18140000     -31.50410000     -71.01370000
C      -46.88860000     -30.36520000     -70.70050000
S      -47.63930000     -31.72260000     -74.67360000
S      -47.97920000     -29.80740000     -72.07240000
H      -46.98240000     -29.77070000     -69.79020000
