40
Properties=species:S:1:pos:R:3 #=T CELL(abcABC):=T 1.889726e+02=T 90.00000=T Traj:=T positionsangstrom=T Step:=T 0=T Bead:=T pbc="F F F"
C      -45.51040000     -30.94500000     -72.52630000
C      -45.49960000     -31.88540000     -73.60770000
C      -44.38750000     -32.65290000     -73.85820000
C      -43.29430000     -32.59990000     -72.98420000
C      -43.35220000     -31.79140000     -71.80840000
C      -44.40550000     -30.93960000     -71.63940000
H      -46.33760000     -30.20680000     -72.51530000
H      -44.35380000     -33.32870000     -74.68230000
H      -42.55900000     -31.93140000     -71.11290000
H      -44.51330000     -30.25100000     -70.76220000
C      -42.13560000     -33.45180000     -73.30040000
H      -41.17800000     -33.01170000     -73.08940000
H      -42.22140000     -33.77630000     -74.32670000
C      -46.82930000     -31.99760000     -74.42950000
H      -47.02450000     -31.01940000     -74.87250000
H      -46.85140000     -32.79620000     -75.20470000
S      -42.11050000     -34.98540000     -72.15570000
S      -48.26710000     -32.33180000     -73.38630000
C      -43.86540000     -35.64500000     -72.26260000
H      -44.43870000     -34.86060000     -72.62580000
H      -43.94510000     -36.61950000     -72.85620000
C      -48.27330000     -34.17220000     -73.00400000
H      -48.29290000     -34.71410000     -73.93040000
H      -49.18620000     -34.29050000     -72.49450000
C      -47.17990000     -34.75520000     -72.05040000
H      -47.37340000     -35.77010000     -71.67590000
H      -46.18380000     -34.87720000     -72.50170000
C      -44.35270000     -36.08030000     -70.86240000
H      -43.62460000     -36.74400000     -70.44560000
H      -45.21200000     -36.79040000     -70.96820000
C      -44.59490000     -34.96450000     -69.91720000
C      -43.82320000     -34.78630000     -68.82590000
C      -45.70840000     -34.07250000     -69.85180000
H      -42.91950000     -35.31690000     -68.65330000
C      -45.78980000     -33.30250000     -68.67810000
C      -46.87420000     -33.89330000     -70.75070000
C      -47.81910000     -33.08250000     -70.18380000
S      -44.30400000     -33.56870000     -67.69160000
S      -47.24820000     -32.32000000     -68.65440000
H      -48.85730000     -33.00740000     -70.58440000
