40
Properties=species:S:1:pos:R:3 #=T CELL(abcABC):=T 1.889726e+02=T 90.00000=T Traj:=T positionsangstrom=T Step:=T 0=T Bead:=T pbc="F F F"
C      -45.54160000     -31.04420000     -72.35380000
C      -45.57520000     -31.94530000     -73.49340000
C      -44.38360000     -32.59010000     -73.86580000
C      -43.21830000     -32.50240000     -73.07650000
C      -43.22780000     -31.68320000     -71.96650000
C      -44.34720000     -30.90830000     -71.62280000
H      -46.56490000     -30.60250000     -72.05240000
H      -44.43450000     -33.16840000     -74.79590000
H      -42.25480000     -31.58100000     -71.40140000
H      -44.30450000     -30.27830000     -70.73770000
C      -42.10400000     -33.49350000     -73.36360000
H      -41.13670000     -32.98920000     -73.11550000
H      -42.10830000     -33.83100000     -74.46690000
C      -46.79110000     -32.12800000     -74.33220000
H      -46.80180000     -31.28990000     -75.03750000
H      -46.76830000     -33.05230000     -74.93900000
S      -42.00130000     -34.95510000     -72.21570000
S      -48.38410000     -32.22970000     -73.29240000
C      -43.67260000     -35.61330000     -72.33610000
H      -44.21610000     -34.84560000     -72.81860000
H      -43.71840000     -36.45180000     -73.03780000
C      -48.37710000     -33.99990000     -72.79350000
H      -48.76310000     -34.52770000     -73.70220000
H      -49.31130000     -34.10090000     -72.16170000
C      -47.18000000     -34.60970000     -72.08110000
H      -47.26560000     -35.71950000     -72.07060000
H      -46.34300000     -34.36910000     -72.75110000
C      -44.26410000     -36.09280000     -70.98010000
H      -43.51150000     -36.73170000     -70.54960000
H      -45.15860000     -36.68600000     -71.17940000
C      -44.63750000     -35.03040000     -69.97250000
C      -43.72000000     -34.75180000     -69.01140000
C      -45.83120000     -34.20020000     -69.88870000
H      -42.87160000     -35.32830000     -68.77390000
C      -45.87160000     -33.51390000     -68.70860000
C      -47.00600000     -33.91220000     -70.70520000
C      -47.85490000     -33.04940000     -70.05360000
S      -44.34180000     -33.56810000     -67.78900000
S      -47.26180000     -32.46750000     -68.53960000
H      -48.74070000     -32.69340000     -70.57400000
