40
Properties=species:S:1:pos:R:3 #=T CELL(abcABC):=T 1.889726e+02=T 90.00000=T Traj:=T positionsangstrom=T Step:=T 0=T Bead:=T pbc="F F F"
C      -45.47030000     -30.60170000     -72.00660000
C      -45.76900000     -31.50210000     -73.01890000
C      -44.78480000     -32.40720000     -73.47440000
C      -43.54600000     -32.51370000     -72.83600000
C      -43.33210000     -31.69690000     -71.68630000
C      -44.27720000     -30.72760000     -71.28060000
H      -46.28310000     -29.94580000     -71.60260000
H      -44.99750000     -32.81680000     -74.51890000
H      -42.33820000     -31.76150000     -71.28330000
H      -44.08230000     -30.22490000     -70.37240000
C      -42.46400000     -33.42270000     -73.37200000
H      -41.39430000     -33.01830000     -73.28070000
H      -42.60040000     -33.65800000     -74.39930000
C      -47.00190000     -31.61240000     -73.93710000
H      -47.17880000     -30.57850000     -74.30530000
H      -46.95980000     -32.35160000     -74.76520000
S      -42.16050000     -35.00490000     -72.50460000
S      -48.56600000     -31.94230000     -72.97190000
C      -43.83220000     -35.83150000     -72.67630000
H      -44.47780000     -35.01890000     -73.13280000
H      -43.67640000     -36.58980000     -73.41100000
C      -48.51740000     -33.77470000     -72.71360000
H      -48.72310000     -34.23080000     -73.64960000
H      -49.41310000     -33.97430000     -72.04660000
C      -47.26390000     -34.40560000     -72.15650000
H      -47.36260000     -35.53510000     -72.21260000
H      -46.40440000     -34.19000000     -72.86820000
C      -44.41400000     -36.38880000     -71.34390000
H      -43.74850000     -37.21470000     -70.93710000
H      -45.42660000     -36.77440000     -71.48460000
C      -44.51610000     -35.30490000     -70.29940000
C      -43.51210000     -35.13160000     -69.40170000
C      -45.65550000     -34.41510000     -70.09560000
H      -42.52760000     -35.68590000     -69.35290000
C      -45.48880000     -33.65480000     -68.94810000
C      -46.92000000     -33.96810000     -70.75140000
C      -47.66570000     -33.05130000     -70.02770000
S      -43.98040000     -33.99370000     -68.07020000
S      -46.90860000     -32.58390000     -68.51610000
H      -48.71060000     -32.83050000     -70.25090000
