40
Properties=species:S:1:pos:R:3 #=T CELL(abcABC):=T 1.889726e+02=T 90.00000=T Traj:=T positionsangstrom=T Step:=T 0=T Bead:=T pbc="F F F"
C      -45.55960000     -30.93520000     -71.66970000
C      -45.63080000     -31.59600000     -72.95710000
C      -44.55360000     -32.25570000     -73.53120000
C      -43.39390000     -32.40210000     -72.76500000
C      -43.34480000     -31.87080000     -71.45700000
C      -44.42310000     -31.13960000     -70.89660000
H      -46.38690000     -30.31220000     -71.15220000
H      -44.63190000     -32.84810000     -74.47910000
H      -42.41800000     -31.93170000     -70.92540000
H      -44.32360000     -30.79730000     -69.88370000
C      -42.26900000     -33.23310000     -73.26120000
H      -41.30200000     -32.91300000     -72.75940000
H      -42.12430000     -33.22670000     -74.28290000
C      -46.89880000     -31.44160000     -73.75420000
H      -47.09330000     -30.39180000     -74.13950000
H      -46.77220000     -32.07760000     -74.67380000
S      -42.39350000     -34.99420000     -72.69940000
S      -48.61460000     -31.79490000     -73.03660000
C      -44.18100000     -35.44040000     -72.95090000
H      -44.51600000     -34.40870000     -72.91380000
H      -44.23530000     -35.92530000     -73.90340000
C      -48.76340000     -33.61290000     -72.44870000
H      -49.15830000     -34.13370000     -73.29890000
H      -49.59140000     -33.72160000     -71.71750000
C      -47.46870000     -34.42010000     -71.94290000
H      -47.85790000     -35.46770000     -71.87750000
H      -46.77190000     -34.39160000     -72.73860000
C      -44.78700000     -36.22300000     -71.78460000
H      -44.15080000     -37.14110000     -71.67400000
H      -45.79370000     -36.46750000     -71.93430000
C      -44.59470000     -35.39360000     -70.52970000
C      -43.64640000     -35.39120000     -69.58460000
C      -45.59310000     -34.38000000     -70.13020000
H      -42.81120000     -36.09660000     -69.49420000
C      -45.33070000     -33.70350000     -68.91480000
C      -46.81050000     -33.87500000     -70.69600000
C      -47.52210000     -32.98690000     -69.90120000
S      -43.76600000     -34.22700000     -68.25060000
S      -46.64860000     -32.60350000     -68.45690000
H      -48.44450000     -32.44450000     -70.05170000
