40
Properties=species:S:1:pos:R:3 #=T CELL(abcABC):=T 1.889726e+02=T 90.00000=T Traj:=T positionsangstrom=T Step:=T 0=T Bead:=T pbc="F F F"
C      -45.65140000     -31.02370000     -71.85580000
C      -45.76820000     -31.58920000     -73.08980000
C      -44.73210000     -32.28040000     -73.68350000
C      -43.55870000     -32.52640000     -72.86200000
C      -43.38380000     -31.85810000     -71.65860000
C      -44.48150000     -31.09650000     -71.14130000
H      -46.45110000     -30.43200000     -71.52190000
H      -44.88510000     -32.88130000     -74.49360000
H      -42.48570000     -32.13260000     -71.08630000
H      -44.31190000     -30.49720000     -70.19910000
C      -42.35390000     -33.28900000     -73.35030000
H      -41.39620000     -32.90030000     -73.16440000
H      -42.49990000     -33.49020000     -74.49520000
C      -47.08860000     -31.37350000     -73.74920000
H      -47.28920000     -30.30910000     -73.95970000
H      -47.13100000     -31.82970000     -74.78620000
S      -42.25150000     -34.95080000     -72.40500000
S      -48.54520000     -31.88810000     -72.80830000
C      -43.78140000     -35.83230000     -72.88460000
H      -44.44010000     -35.09760000     -73.33410000
H      -43.59960000     -36.67480000     -73.60290000
C      -48.50500000     -33.71320000     -72.74460000
H      -48.74090000     -34.15520000     -73.75610000
H      -49.34400000     -33.91710000     -72.13450000
C      -47.32110000     -34.39750000     -72.20220000
H      -47.69750000     -35.42860000     -72.03360000
H      -46.51590000     -34.38340000     -72.96830000
C      -44.54470000     -36.27980000     -71.55940000
H      -44.22850000     -37.20870000     -71.19740000
H      -45.56660000     -36.45840000     -71.88410000
C      -44.51570000     -35.28450000     -70.41340000
C      -43.61970000     -35.30760000     -69.38140000
C      -45.56250000     -34.20570000     -70.16670000
H      -42.75750000     -35.88030000     -69.26330000
C      -45.37360000     -33.56480000     -68.94490000
C      -46.84170000     -33.89690000     -70.77470000
C      -47.58290000     -32.93210000     -70.06120000
S      -43.90970000     -34.14960000     -68.08990000
S      -46.77020000     -32.52500000     -68.56460000
H      -48.57480000     -32.60370000     -70.27170000
