40
Properties=species:S:1:pos:R:3 #=T CELL(abcABC):=T 1.889726e+02=T 90.00000=T Traj:=T positionsangstrom=T Step:=T 0=T Bead:=T pbc="F F F"
C      -42.29030000     -34.13940000     -73.61630000
C      -42.21980000     -33.03400000     -72.73860000
C      -42.16240000     -33.18970000     -71.32180000
C      -42.22990000     -34.48550000     -70.74600000
C      -42.37580000     -35.55790000     -71.69910000
C      -42.45320000     -35.38790000     -73.10120000
H      -42.33780000     -33.91130000     -74.67630000
H      -42.25580000     -32.29160000     -70.77920000
H      -42.61910000     -36.57790000     -71.29920000
H      -42.63390000     -36.32940000     -73.62740000
C      -42.26170000     -34.75940000     -69.28120000
H      -42.45920000     -33.78000000     -68.83050000
H      -41.31110000     -35.13910000     -68.95280000
C      -42.11770000     -31.66960000     -73.35360000
H      -41.86280000     -31.00770000     -72.53150000
H      -41.38970000     -31.61360000     -74.12470000
S      -43.52470000     -36.02220000     -68.74040000
S      -43.66950000     -31.02170000     -74.13780000
C      -45.02880000     -35.02410000     -68.56150000
H      -45.79280000     -35.79360000     -68.31030000
H      -44.90590000     -34.40190000     -67.70920000
C      -44.93120000     -31.24060000     -72.75050000
H      -45.68160000     -30.53950000     -73.15920000
H      -44.54100000     -30.81420000     -71.82240000
C      -45.54160000     -32.65540000     -72.73990000
H      -45.50280000     -32.90870000     -73.84890000
H      -44.99580000     -33.37850000     -72.23300000
C      -45.34390000     -34.21190000     -69.83250000
H      -45.30360000     -34.81030000     -70.71050000
H      -44.54290000     -33.46630000     -69.90100000
C      -46.76960000     -33.53810000     -69.79830000
C      -47.63010000     -33.80610000     -68.77560000
C      -47.38800000     -32.93180000     -70.95440000
H      -47.30700000     -34.28180000     -67.88280000
C      -48.75490000     -32.81980000     -70.83450000
C      -47.00780000     -32.61860000     -72.32740000
C      -48.05570000     -32.26740000     -73.15550000
S      -49.24820000     -33.27050000     -69.20770000
S      -49.58780000     -32.22460000     -72.24700000
H      -48.00840000     -31.84840000     -74.14370000
