40
Properties=species:S:1:pos:R:3 #=T CELL(abcABC):=T 1.889726e+02=T 90.00000=T Traj:=T positionsangstrom=T Step:=T 0=T Bead:=T pbc="F F F"
C      -42.64780000     -34.00110000     -73.55460000
C      -42.28400000     -32.95410000     -72.74050000
C      -42.17390000     -33.13760000     -71.34820000
C      -42.18860000     -34.42930000     -70.84270000
C      -42.43230000     -35.52900000     -71.72150000
C      -42.62880000     -35.31310000     -73.12150000
H      -42.92610000     -33.83450000     -74.55170000
H      -41.89580000     -32.35310000     -70.54590000
H      -42.38200000     -36.48340000     -71.27400000
H      -42.97050000     -36.09410000     -73.76730000
C      -41.99840000     -34.75260000     -69.39270000
H      -41.85440000     -33.81980000     -68.82930000
H      -41.09570000     -35.33570000     -69.25840000
C      -42.16600000     -31.49290000     -73.23320000
H      -41.94210000     -30.86850000     -72.35040000
H      -41.30460000     -31.40470000     -73.79760000
S      -43.35770000     -35.80910000     -68.69870000
S      -43.71400000     -30.87360000     -73.94910000
C      -44.74360000     -34.58710000     -68.50060000
H      -45.59980000     -35.07240000     -67.89510000
H      -44.48350000     -33.81350000     -67.80990000
C      -44.87590000     -31.43900000     -72.54480000
H      -45.67000000     -30.69060000     -72.30790000
H      -44.28700000     -31.55800000     -71.70160000
C      -45.57180000     -32.73040000     -72.95740000
H      -45.57930000     -32.88830000     -74.03980000
H      -44.97440000     -33.65420000     -72.56100000
C      -45.32260000     -34.01320000     -69.80180000
H      -45.03940000     -34.62560000     -70.67980000
H      -44.77700000     -33.08630000     -69.98990000
C      -46.75470000     -33.67990000     -69.85910000
C      -47.66310000     -33.85460000     -68.86920000
C      -47.41710000     -33.19460000     -71.10990000
H      -47.53830000     -34.19870000     -67.85810000
C      -48.78990000     -32.98600000     -70.87060000
C      -46.99310000     -32.80440000     -72.39730000
C      -48.04900000     -32.44420000     -73.17280000
S      -49.31860000     -33.50860000     -69.27690000
S      -49.62360000     -32.38450000     -72.27780000
H      -48.00100000     -31.86880000     -74.10730000
