40
Properties=species:S:1:pos:R:3 #=T CELL(abcABC):=T 1.889726e+02=T 90.00000=T Traj:=T positionsangstrom=T Step:=T 0=T Bead:=T pbc="F F F"
C      -42.49970000     -33.90510000     -73.64810000
C      -42.08030000     -32.93240000     -72.73780000
C      -41.87010000     -33.24800000     -71.40820000
C      -42.31530000     -34.53300000     -70.91180000
C      -42.82910000     -35.46930000     -71.83870000
C      -42.79460000     -35.18460000     -73.23770000
H      -42.55660000     -33.75540000     -74.71330000
H      -41.56410000     -32.40300000     -70.66420000
H      -43.13190000     -36.36420000     -71.38260000
H      -43.20040000     -35.94100000     -73.89070000
C      -42.17080000     -34.75420000     -69.42610000
H      -42.05720000     -33.80260000     -68.86240000
H      -41.27350000     -35.34240000     -69.39790000
C      -41.98930000     -31.52820000     -73.27800000
H      -41.86170000     -30.72590000     -72.55610000
H      -41.39610000     -31.38140000     -74.20200000
S      -43.41730000     -35.81470000     -68.55080000
S      -43.69490000     -30.96500000     -73.94610000
C      -44.93150000     -34.76910000     -68.41550000
H      -45.65060000     -35.49020000     -68.15790000
H      -44.87190000     -34.03670000     -67.60300000
C      -44.90100000     -31.42690000     -72.71990000
H      -45.60890000     -30.60580000     -72.93750000
H      -44.56080000     -31.18480000     -71.66450000
C      -45.48240000     -32.82680000     -72.81800000
H      -45.42520000     -32.94460000     -73.82310000
H      -44.92670000     -33.57850000     -72.26290000
C      -45.30740000     -34.03300000     -69.71480000
H      -44.99270000     -34.55680000     -70.60520000
H      -44.81890000     -33.06040000     -69.76310000
C      -46.76060000     -33.70330000     -69.82070000
C      -47.66710000     -33.87310000     -68.81090000
C      -47.40220000     -33.22810000     -71.06640000
H      -47.48080000     -33.93670000     -67.72930000
C      -48.73850000     -32.86040000     -70.85180000
C      -46.95820000     -32.85100000     -72.36810000
C      -48.01280000     -32.34090000     -73.13510000
S      -49.33430000     -33.38910000     -69.32120000
S      -49.53420000     -32.37900000     -72.28640000
H      -47.87960000     -31.94730000     -74.20970000
