40
Properties=species:S:1:pos:R:3 #=T CELL(abcABC):=T 1.889726e+02=T 90.00000=T Traj:=T positionsangstrom=T Step:=T 0=T Bead:=T pbc="F F F"
C      -47.35460000     -35.44960000     -73.45050000
C      -46.00870000     -35.31820000     -73.85290000
C      -44.99770000     -35.97570000     -73.08840000
C      -45.27850000     -36.74760000     -71.90940000
C      -46.60810000     -36.89880000     -71.55010000
C      -47.59560000     -36.31790000     -72.34800000
H      -48.12690000     -34.90680000     -73.93800000
H      -43.97790000     -35.80570000     -73.37860000
H      -47.03690000     -37.35940000     -70.62620000
H      -48.63680000     -36.51490000     -72.21350000
C      -44.17430000     -37.45480000     -71.21970000
H      -43.59810000     -38.26760000     -71.78310000
H      -44.40420000     -38.01730000     -70.23320000
C      -45.65000000     -34.57300000     -75.06910000
H      -45.07730000     -35.25050000     -75.71570000
H      -46.51760000     -34.20140000     -75.65100000
S      -42.87480000     -36.12410000     -70.77360000
S      -44.39410000     -33.14370000     -74.66310000
C      -43.83880000     -34.96680000     -69.76810000
H      -44.85050000     -35.31440000     -69.61250000
H      -43.41950000     -34.73650000     -68.82200000
C      -45.42780000     -32.12240000     -73.63670000
H      -46.23480000     -32.71240000     -73.13990000
H      -45.89540000     -31.39480000     -74.33270000
C      -44.66010000     -31.31010000     -72.56110000
H      -43.82560000     -31.84550000     -72.07260000
H      -44.22140000     -30.45660000     -73.05150000
C      -44.10260000     -33.58900000     -70.49850000
H      -44.64840000     -33.86970000     -71.42140000
H      -43.22520000     -33.11830000     -70.88220000
C      -44.84600000     -32.64810000     -69.63290000
C      -45.13470000     -32.87310000     -68.30320000
C      -45.33940000     -31.36450000     -70.08160000
H      -44.73650000     -33.70770000     -67.72110000
C      -46.02290000     -30.67720000     -69.10210000
C      -45.42480000     -30.74340000     -71.37230000
C      -46.24320000     -29.64920000     -71.38330000
S      -45.94560000     -31.52550000     -67.56930000
S      -46.84530000     -29.31490000     -69.72590000
H      -46.40180000     -29.08570000     -72.27100000
