40
Properties=species:S:1:pos:R:3 #=T CELL(abcABC):=T 1.889726e+02=T 90.00000=T Traj:=T positionsangstrom=T Step:=T 0=T Bead:=T pbc="F F F"
C      -45.53020000     -30.86540000     -71.95930000
C      -45.68670000     -31.64580000     -73.08180000
C      -44.60800000     -32.33780000     -73.58860000
C      -43.45060000     -32.49560000     -72.75900000
C      -43.37650000     -31.78110000     -71.47260000
C      -44.43460000     -30.95830000     -71.10290000
H      -46.43260000     -30.34230000     -71.45760000
H      -44.65280000     -32.67750000     -74.61050000
H      -42.52880000     -31.73030000     -70.77890000
H      -44.38620000     -30.37020000     -70.13840000
C      -42.31630000     -33.26100000     -73.22420000
H      -41.44430000     -33.01530000     -72.74980000
H      -42.26650000     -33.02000000     -74.33190000
C      -47.01630000     -31.55540000     -73.82020000
H      -47.02680000     -30.55120000     -74.21840000
H      -47.12560000     -32.30180000     -74.66830000
S      -42.38140000     -35.09930000     -73.11020000
S      -48.45320000     -31.62840000     -72.63360000
C      -44.14640000     -35.45890000     -73.24460000
H      -44.62510000     -34.68980000     -73.76870000
H      -44.21770000     -36.30950000     -73.96650000
C      -48.83660000     -33.40340000     -72.38860000
H      -49.18250000     -33.88750000     -73.33670000
H      -49.59490000     -33.45290000     -71.63090000
C      -47.60640000     -34.13970000     -71.88460000
H      -47.87420000     -35.14310000     -71.78960000
H      -46.85680000     -34.13700000     -72.77710000
C      -44.84790000     -35.96470000     -71.93270000
H      -44.78790000     -37.05240000     -71.83710000
H      -45.96820000     -35.89490000     -72.22720000
C      -44.64050000     -35.24870000     -70.59680000
C      -43.50620000     -35.25990000     -69.83380000
C      -45.64430000     -34.37150000     -70.07250000
H      -42.56690000     -35.74130000     -70.10240000
C      -45.36220000     -34.01790000     -68.76620000
C      -46.93060000     -33.86380000     -70.52980000
C      -47.43760000     -32.91770000     -69.64280000
S      -43.76140000     -34.37150000     -68.28640000
S      -46.54920000     -32.86340000     -68.07110000
H      -48.44070000     -32.45540000     -69.75280000
