40
Properties=species:S:1:pos:R:3 #=T CELL(abcABC):=T 1.889726e+02=T 90.00000=T Traj:=T positionsangstrom=T Step:=T 0=T Bead:=T pbc="F F F"
C      -42.41870000     -34.06260000     -73.51610000
C      -42.28720000     -32.92360000     -72.67020000
C      -42.03830000     -33.16360000     -71.34170000
C      -42.14380000     -34.43750000     -70.76500000
C      -42.14270000     -35.54550000     -71.62220000
C      -42.40690000     -35.35240000     -72.99760000
H      -42.58530000     -33.96740000     -74.55420000
H      -41.94200000     -32.42410000     -70.58130000
H      -42.06710000     -36.54310000     -71.17910000
H      -42.44910000     -36.26150000     -73.59690000
C      -41.90900000     -34.68300000     -69.35760000
H      -41.89910000     -33.72150000     -68.83370000
H      -40.98580000     -35.21650000     -69.02880000
C      -42.19130000     -31.53030000     -73.23670000
H      -41.56730000     -30.91180000     -72.50600000
H      -41.61170000     -31.56120000     -74.21790000
S      -43.34580000     -35.78000000     -68.66000000
S      -43.78260000     -30.69640000     -73.76980000
C      -44.78280000     -34.54300000     -68.59190000
H      -45.56320000     -35.21100000     -68.03500000
H      -44.48390000     -33.68550000     -68.01440000
C      -45.14360000     -31.24690000     -72.70180000
H      -45.97220000     -30.51960000     -72.81710000
H      -44.79280000     -31.12870000     -71.63830000
C      -45.66910000     -32.67420000     -73.06680000
H      -45.65370000     -32.81590000     -74.16290000
H      -44.98450000     -33.44790000     -72.66810000
C      -45.29560000     -34.10330000     -69.96300000
H      -45.12590000     -34.93670000     -70.67410000
H      -44.67620000     -33.25920000     -70.30760000
C      -46.78590000     -33.73370000     -69.95740000
C      -47.63000000     -33.96530000     -68.90890000
C      -47.47940000     -33.14050000     -71.11900000
H      -47.42710000     -34.53630000     -68.04870000
C      -48.87120000     -33.09340000     -70.88730000
C      -47.10270000     -32.82180000     -72.47940000
C      -48.16220000     -32.33460000     -73.19590000
S      -49.30380000     -33.50670000     -69.25800000
S      -49.67940000     -32.57120000     -72.33290000
H      -48.28540000     -32.04600000     -74.19230000
