40
Properties=species:S:1:pos:R:3 #=T CELL(abcABC):=T 1.889726e+02=T 90.00000=T Traj:=T positionsangstrom=T Step:=T 0=T Bead:=T pbc="F F F"
C      -41.72190000     -33.24760000     -73.38720000
C      -42.01360000     -32.29140000     -72.40400000
C      -41.89560000     -32.68860000     -71.06100000
C      -41.79780000     -34.03050000     -70.69880000
C      -41.63270000     -35.01900000     -71.64620000
C      -41.56460000     -34.60670000     -72.97680000
H      -41.73450000     -33.02260000     -74.39150000
H      -41.94480000     -31.93260000     -70.34090000
H      -41.53940000     -36.10780000     -71.39560000
H      -41.33060000     -35.19780000     -73.86140000
C      -41.93900000     -34.44450000     -69.28320000
H      -42.07750000     -33.54500000     -68.63650000
H      -40.98730000     -34.88110000     -68.91870000
C      -42.36370000     -30.84080000     -72.70630000
H      -42.53490000     -30.10590000     -71.90990000
H      -41.66140000     -30.37190000     -73.40680000
S      -43.15800000     -35.78500000     -69.08900000
S      -43.93590000     -30.80810000     -73.73250000
C      -44.82460000     -34.99230000     -68.75940000
H      -45.44420000     -35.76040000     -68.25470000
H      -44.67280000     -34.22240000     -67.97110000
C      -45.19220000     -31.45070000     -72.54070000
H      -45.99730000     -30.66960000     -72.53460000
H      -44.76040000     -31.41280000     -71.51970000
C      -45.78220000     -32.85190000     -72.96320000
H      -45.69400000     -33.01120000     -74.09410000
H      -45.19240000     -33.59940000     -72.48370000
C      -45.52010000     -34.35120000     -69.97550000
H      -45.32260000     -34.92970000     -70.91140000
H      -45.08100000     -33.37710000     -70.11200000
C      -46.98480000     -34.04540000     -69.98660000
C      -47.83860000     -34.25220000     -68.93660000
C      -47.69690000     -33.64360000     -71.23730000
H      -47.52990000     -34.52990000     -67.89300000
C      -49.06650000     -33.47750000     -70.96560000
C      -47.24930000     -33.01220000     -72.49060000
C      -48.30470000     -32.54660000     -73.21660000
S      -49.55700000     -33.93930000     -69.33860000
S      -49.87020000     -32.71150000     -72.35800000
H      -48.31390000     -32.19670000     -74.21070000
