40
Properties=species:S:1:pos:R:3 #=T CELL(abcABC):=T 1.889726e+02=T 90.00000=T Traj:=T positionsangstrom=T Step:=T 0=T Bead:=T pbc="F F F"
C      -41.93920000     -33.47890000     -73.47780000
C      -42.02950000     -32.43970000     -72.47690000
C      -42.02720000     -32.80340000     -71.12250000
C      -41.97870000     -34.17870000     -70.74730000
C      -41.75770000     -35.12930000     -71.72710000
C      -41.70620000     -34.82220000     -73.09630000
H      -41.84850000     -33.24090000     -74.45010000
H      -42.09870000     -31.94180000     -70.45080000
H      -41.60590000     -36.12680000     -71.35990000
H      -41.57200000     -35.59840000     -73.84410000
C      -41.98900000     -34.53410000     -69.28330000
H      -42.18860000     -33.66690000     -68.69560000
H      -41.01170000     -34.95590000     -68.97100000
C      -42.24440000     -30.93900000     -72.92060000
H      -42.09430000     -30.24620000     -72.08470000
H      -41.47550000     -30.68270000     -73.63440000
S      -43.33280000     -35.74360000     -68.81690000
S      -43.93350000     -30.77500000     -73.60280000
C      -44.85820000     -34.70970000     -68.75610000
H      -45.53590000     -35.46050000     -68.24850000
H      -44.68010000     -33.95210000     -68.11130000
C      -45.12260000     -31.50030000     -72.45650000
H      -45.85230000     -30.77340000     -72.26840000
H      -44.69950000     -31.87970000     -71.51810000
C      -45.77390000     -32.71250000     -73.10300000
H      -45.85200000     -32.65330000     -74.16090000
H      -45.19020000     -33.59220000     -72.84150000
C      -45.43630000     -34.31010000     -70.12620000
H      -45.20700000     -35.17020000     -70.76130000
H      -44.82970000     -33.44590000     -70.49990000
C      -46.86020000     -33.99970000     -70.09290000
C      -47.71650000     -34.31000000     -69.06880000
C      -47.54670000     -33.36490000     -71.19230000
H      -47.41060000     -34.63110000     -68.09650000
C      -48.88120000     -33.21280000     -70.88210000
C      -47.23440000     -32.94750000     -72.58540000
C      -48.32610000     -32.52840000     -73.26200000
S      -49.41760000     -33.88770000     -69.33180000
S      -49.83220000     -32.75450000     -72.29610000
H      -48.35400000     -31.96670000     -74.22190000
