40
Properties=species:S:1:pos:R:3 #=T CELL(abcABC):=T 1.889726e+02=T 90.00000=T Traj:=T positionsangstrom=T Step:=T 0=T Bead:=T pbc="F F F"
C      -45.41220000     -31.06500000     -70.94050000
C      -45.37850000     -31.24060000     -72.31620000
C      -44.21170000     -31.65580000     -72.98360000
C      -43.08890000     -32.13100000     -72.17000000
C      -43.13970000     -31.98650000     -70.78310000
C      -44.36510000     -31.61820000     -70.17450000
H      -46.30190000     -30.65700000     -70.47500000
H      -44.30430000     -31.74540000     -74.06750000
H      -42.31440000     -32.17650000     -70.18370000
H      -44.42020000     -31.69950000     -69.06440000
C      -41.94060000     -32.85840000     -72.83240000
H      -41.05360000     -32.67990000     -72.19770000
H      -41.72210000     -32.40750000     -73.80020000
C      -46.57410000     -30.82260000     -73.19050000
H      -46.73020000     -29.76150000     -73.37140000
H      -46.54470000     -31.37560000     -74.10670000
S      -42.20340000     -34.68900000     -73.00240000
S      -48.22220000     -31.13250000     -72.32430000
C      -44.00560000     -34.82550000     -73.43270000
H      -44.40080000     -33.85610000     -73.12020000
H      -44.12810000     -34.90500000     -74.51630000
C      -48.64010000     -32.85680000     -72.83100000
H      -48.83950000     -32.79890000     -73.88730000
H      -49.49820000     -33.18330000     -72.37950000
C      -47.52750000     -33.88210000     -72.49870000
H      -47.86620000     -34.77220000     -72.85940000
H      -46.64130000     -33.76210000     -73.06560000
C      -44.77090000     -35.91110000     -72.68860000
H      -44.22550000     -36.81400000     -72.80910000
H      -45.73590000     -36.10210000     -73.05490000
C      -44.90080000     -35.52810000     -71.22400000
C      -43.98490000     -35.91340000     -70.27680000
C      -45.97300000     -34.74320000     -70.58420000
H      -43.09860000     -36.55070000     -70.50000000
C      -45.75410000     -34.48800000     -69.19010000
C      -47.20430000     -33.99760000     -70.98830000
C      -47.76140000     -33.31080000     -69.93650000
S      -44.28760000     -35.26980000     -68.69200000
S      -46.81810000     -33.28780000     -68.42570000
H      -48.74100000     -32.75440000     -70.01000000
