40
Properties=species:S:1:pos:R:3 #=T CELL(abcABC):=T 1.889726e+02=T 90.00000=T Traj:=T positionsangstrom=T Step:=T 0=T Bead:=T pbc="F F F"
C      -45.33610000     -30.86330000     -70.92700000
C      -45.35880000     -31.14600000     -72.26970000
C      -44.19890000     -31.63380000     -72.88640000
C      -43.10540000     -32.01460000     -72.12950000
C      -43.05660000     -31.84320000     -70.69870000
C      -44.19990000     -31.17300000     -70.17000000
H      -46.21700000     -30.52830000     -70.42480000
H      -44.19900000     -31.75290000     -73.94390000
H      -42.28500000     -32.22900000     -70.05710000
H      -44.17890000     -30.87080000     -69.14490000
C      -42.04440000     -32.79180000     -72.82810000
H      -41.15200000     -32.76670000     -72.25660000
H      -41.83340000     -32.33870000     -73.86040000
C      -46.53100000     -30.95250000     -73.20990000
H      -46.51870000     -29.89780000     -73.64850000
H      -46.33180000     -31.58360000     -74.11470000
S      -42.39670000     -34.57920000     -73.05280000
S      -48.18320000     -31.07190000     -72.56920000
C      -44.21470000     -34.89180000     -73.44510000
H      -44.66330000     -33.89350000     -73.18540000
H      -44.17900000     -35.06590000     -74.51580000
C      -48.85520000     -32.78090000     -72.56150000
H      -49.43510000     -32.92490000     -73.50010000
H      -49.67310000     -32.90910000     -71.81220000
C      -47.81140000     -33.92740000     -72.40820000
H      -48.46190000     -34.85400000     -72.36390000
H      -47.10280000     -33.92050000     -73.26700000
C      -44.83170000     -36.01950000     -72.62340000
H      -44.23200000     -36.97210000     -72.81060000
H      -45.91390000     -36.23740000     -72.98880000
C      -44.84790000     -35.68100000     -71.18720000
C      -43.96270000     -36.15560000     -70.21800000
C      -45.79720000     -34.72040000     -70.64080000
H      -43.06860000     -36.82810000     -70.38260000
C      -45.59630000     -34.52730000     -69.29270000
C      -46.99910000     -33.93820000     -71.03300000
C      -47.56550000     -33.22350000     -69.98020000
S      -44.21650000     -35.37530000     -68.64270000
S      -46.81510000     -33.55780000     -68.41650000
H      -48.39000000     -32.47440000     -70.00400000
