40
Properties=species:S:1:pos:R:3 #=T CELL(abcABC):=T 1.889726e+02=T 90.00000=T Traj:=T positionsangstrom=T Step:=T 0=T Bead:=T pbc="F F F"
C      -45.33650000     -31.14430000     -70.54400000
C      -45.46970000     -31.05810000     -71.99580000
C      -44.47080000     -31.70650000     -72.83800000
C      -43.39440000     -32.31150000     -72.20780000
C      -43.26940000     -32.33120000     -70.79650000
C      -44.18960000     -31.70790000     -69.98250000
H      -46.19770000     -30.92000000     -69.91730000
H      -44.56400000     -31.61540000     -73.89080000
H      -42.35080000     -32.84800000     -70.36650000
H      -44.04780000     -31.54470000     -68.90920000
C      -42.35620000     -32.84950000     -73.18440000
H      -41.33370000     -32.54450000     -72.97080000
H      -42.63040000     -32.49870000     -74.19360000
C      -46.59140000     -30.37110000     -72.61510000
H      -46.54640000     -29.35680000     -72.19220000
H      -46.49470000     -30.29650000     -73.68890000
S      -42.06810000     -34.77550000     -73.14610000
S      -48.32670000     -30.87430000     -72.29400000
C      -43.81850000     -35.34710000     -73.59310000
H      -44.42570000     -34.45350000     -73.90700000
H      -43.68700000     -36.05620000     -74.42590000
C      -48.61130000     -32.64540000     -72.84800000
H      -48.74660000     -32.67900000     -73.87800000
H      -49.58740000     -32.95700000     -72.42530000
C      -47.47600000     -33.67480000     -72.61120000
H      -47.72900000     -34.57430000     -73.17530000
H      -46.64810000     -33.24480000     -73.06170000
C      -44.71180000     -36.06270000     -72.58770000
H      -44.38320000     -37.08050000     -72.45790000
H      -45.71220000     -36.06170000     -73.07600000
C      -44.73300000     -35.41390000     -71.21750000
C      -43.75240000     -35.68560000     -70.29220000
C      -45.83630000     -34.62970000     -70.69050000
H      -42.85810000     -36.20140000     -70.48150000
C      -45.71790000     -34.51980000     -69.33060000
C      -47.03110000     -33.96640000     -71.11690000
C      -47.71890000     -33.41610000     -70.11200000
S      -44.21910000     -35.12930000     -68.63810000
S      -46.97180000     -33.60310000     -68.55640000
H      -48.66240000     -32.89290000     -70.09490000
