40
Properties=species:S:1:pos:R:3 #=T CELL(abcABC):=T 1.889726e+02=T 90.00000=T Traj:=T positionsangstrom=T Step:=T 0=T Bead:=T pbc="F F F"
C      -44.78980000     -30.72540000     -70.69230000
C      -44.95660000     -30.79730000     -72.06100000
C      -44.09340000     -31.56990000     -72.91530000
C      -43.04610000     -32.26070000     -72.33220000
C      -42.79380000     -32.17890000     -70.91200000
C      -43.68840000     -31.46480000     -70.09280000
H      -45.52010000     -30.31930000     -70.02670000
H      -44.33480000     -31.62520000     -73.99070000
H      -42.00750000     -32.66170000     -70.40970000
H      -43.52580000     -31.35040000     -69.03020000
C      -42.13280000     -33.10490000     -73.22650000
H      -41.05750000     -32.88920000     -72.84100000
H      -42.15060000     -32.82520000     -74.28020000
C      -46.25360000     -30.04960000     -72.60160000
H      -46.36380000     -29.11630000     -72.03060000
H      -46.22230000     -29.93660000     -73.69840000
S      -42.43510000     -34.91810000     -73.11630000
S      -47.80140000     -30.95260000     -72.02340000
C      -44.29430000     -35.05310000     -73.47970000
H      -44.65120000     -34.09590000     -73.16250000
H      -44.47910000     -35.30590000     -74.51970000
C      -47.64510000     -32.39400000     -73.23150000
H      -46.57550000     -32.43500000     -73.63710000
H      -48.41080000     -32.19090000     -74.04570000
C      -47.89590000     -33.82970000     -72.60370000
H      -48.92930000     -33.94980000     -72.61840000
H      -47.34450000     -34.47320000     -73.27040000
C      -44.93320000     -36.11840000     -72.56310000
H      -44.34490000     -37.02260000     -72.50800000
H      -45.86660000     -36.39750000     -73.11310000
C      -45.20320000     -35.62250000     -71.16420000
C      -44.25670000     -35.99840000     -70.20350000
C      -46.16790000     -34.64300000     -70.69840000
H      -43.39830000     -36.65600000     -70.40300000
C      -45.93940000     -34.53110000     -69.28510000
C      -47.40960000     -33.96900000     -71.16680000
C      -47.98280000     -33.31490000     -70.09300000
S      -44.62070000     -35.43760000     -68.66140000
S      -47.18480000     -33.58630000     -68.52980000
H      -48.85310000     -32.76540000     -70.14470000
