40
Properties=species:S:1:pos:R:3 #=T CELL(abcABC):=T 1.889726e+02=T 90.00000=T Traj:=T positionsangstrom=T Step:=T 0=T Bead:=T pbc="F F F"
C      -44.73310000     -30.85760000     -70.87180000
C      -44.71170000     -30.95210000     -72.25030000
C      -43.83420000     -31.88620000     -72.82400000
C      -42.94440000     -32.62090000     -72.10310000
C      -42.93240000     -32.46470000     -70.73890000
C      -43.81490000     -31.63200000     -70.12090000
H      -45.46360000     -30.16550000     -70.48220000
H      -43.82380000     -32.02280000     -73.90800000
H      -42.18420000     -33.02250000     -70.14080000
H      -43.89000000     -31.54010000     -69.00790000
C      -41.99010000     -33.68990000     -72.73620000
H      -41.05220000     -33.81800000     -72.29550000
H      -41.81830000     -33.36550000     -73.78120000
C      -45.56340000     -30.04580000     -73.08160000
H      -45.44480000     -28.97880000     -72.80270000
H      -45.25770000     -30.09380000     -74.15830000
S      -42.61450000     -35.43630000     -72.75850000
S      -47.40230000     -30.51280000     -73.16590000
C      -44.39320000     -35.20110000     -73.38720000
H      -44.50940000     -34.13120000     -73.28530000
H      -44.45770000     -35.48620000     -74.50370000
C      -47.25590000     -32.38940000     -73.23940000
H      -46.22760000     -32.63500000     -73.31570000
H      -47.61110000     -32.69390000     -74.22330000
C      -48.06110000     -33.21790000     -72.18810000
H      -49.08990000     -32.80050000     -72.03390000
H      -48.31600000     -34.19850000     -72.73570000
C      -45.46250000     -35.89350000     -72.65070000
H      -45.20290000     -36.96880000     -72.84810000
H      -46.42700000     -35.69390000     -73.20410000
C      -45.47720000     -35.49050000     -71.20680000
C      -44.63640000     -36.01190000     -70.32760000
C      -46.33520000     -34.44870000     -70.59040000
H      -43.97040000     -36.82740000     -70.53480000
C      -46.17670000     -34.46570000     -69.16890000
C      -47.35100000     -33.43910000     -70.90330000
C      -47.88490000     -32.88880000     -69.73900000
S      -44.86310000     -35.49830000     -68.61710000
S      -47.14870000     -33.43590000     -68.26020000
H      -48.81460000     -32.28360000     -69.72550000
