40
Properties=species:S:1:pos:R:3 #=T CELL(abcABC):=T 1.889726e+02=T 90.00000=T Traj:=T positionsangstrom=T Step:=T 0=T Bead:=T pbc="F F F"
C      -44.48240000     -31.12840000     -70.43300000
C      -44.62720000     -31.10790000     -71.83100000
C      -43.84460000     -32.07560000     -72.49010000
C      -42.90150000     -32.89290000     -71.83710000
C      -42.75880000     -32.80730000     -70.44610000
C      -43.62590000     -31.98650000     -69.79270000
H      -45.09540000     -30.49350000     -69.85460000
H      -44.10500000     -32.13400000     -73.49790000
H      -41.90080000     -33.30840000     -69.94770000
H      -43.53130000     -31.99010000     -68.70240000
C      -42.13150000     -33.90600000     -72.57590000
H      -41.17300000     -34.11200000     -72.05960000
H      -41.91140000     -33.57970000     -73.60120000
C      -45.42460000     -30.15880000     -72.66260000
H      -45.33200000     -29.13080000     -72.24210000
H      -45.02930000     -30.20960000     -73.74520000
S      -42.95060000     -35.54780000     -72.85910000
S      -47.25930000     -30.49950000     -72.87240000
C      -44.57440000     -35.23470000     -73.59300000
H      -44.84180000     -34.19780000     -73.61510000
H      -44.61940000     -35.68000000     -74.63120000
C      -47.27650000     -32.27830000     -73.51630000
H      -46.26330000     -32.62140000     -73.60110000
H      -47.85230000     -32.34900000     -74.54670000
C      -47.94340000     -33.25010000     -72.55600000
H      -48.99750000     -33.04470000     -72.53660000
H      -47.76620000     -34.27120000     -72.94450000
C      -45.60730000     -35.87740000     -72.73060000
H      -45.53300000     -36.95170000     -72.78140000
H      -46.52660000     -35.68490000     -73.33750000
C      -45.60800000     -35.43770000     -71.34310000
C      -44.92690000     -36.12370000     -70.37940000
C      -46.34190000     -34.34920000     -70.73130000
H      -44.30250000     -37.00220000     -70.56960000
C      -46.03290000     -34.17280000     -69.39270000
C      -47.34010000     -33.31880000     -71.16260000
C      -47.72220000     -32.48080000     -70.11680000
S      -45.02590000     -35.46760000     -68.69990000
S      -46.94930000     -32.94330000     -68.59220000
H      -48.42630000     -31.68090000     -70.12260000
