40
Properties=species:S:1:pos:R:3 #=T CELL(abcABC):=T 1.889726e+02=T 90.00000=T Traj:=T positionsangstrom=T Step:=T 0=T Bead:=T pbc="F F F"
C      -47.59460000     -35.58690000     -73.42510000
C      -46.27300000     -35.42040000     -73.90470000
C      -45.24330000     -36.07520000     -73.20860000
C      -45.46210000     -36.81250000     -72.03940000
C      -46.86540000     -37.00790000     -71.66190000
C      -47.90820000     -36.49340000     -72.41250000
H      -48.42940000     -35.14310000     -73.86000000
H      -44.20550000     -35.98200000     -73.51670000
H      -46.95390000     -37.58390000     -70.74920000
H      -48.88200000     -36.66370000     -72.02720000
C      -44.34330000     -37.40400000     -71.20280000
H      -43.88140000     -38.21470000     -71.91670000
H      -44.86320000     -37.86700000     -70.25840000
C      -46.00850000     -34.48570000     -75.13960000
H      -45.53650000     -35.13280000     -75.91500000
H      -46.92350000     -34.09120000     -75.64920000
S      -42.92840000     -36.33310000     -70.76580000
S      -44.84880000     -33.12340000     -74.89530000
C      -43.58330000     -35.06610000     -69.54750000
H      -44.28450000     -35.42570000     -68.83580000
H      -42.78220000     -34.84270000     -68.90920000
C      -45.56180000     -32.35380000     -73.25390000
H      -45.59840000     -33.13320000     -72.43360000
H      -46.62880000     -32.00740000     -73.40760000
C      -44.65870000     -31.25420000     -72.80170000
H      -43.63690000     -31.70290000     -72.66540000
H      -44.49270000     -30.51340000     -73.64910000
C      -43.95980000     -33.75250000     -70.27100000
H      -44.49710000     -33.92870000     -71.25470000
H      -43.02340000     -33.25150000     -70.46170000
C      -44.74270000     -32.69360000     -69.52080000
C      -45.00230000     -32.73760000     -68.17930000
C      -45.15840000     -31.39630000     -70.07740000
H      -44.94290000     -33.64250000     -67.56460000
C      -45.83140000     -30.63210000     -69.13830000
C      -45.09680000     -30.67730000     -71.43930000
C      -45.73550000     -29.46210000     -71.31490000
S      -45.71550000     -31.31060000     -67.47510000
S      -46.42580000     -29.06570000     -69.75800000
H      -45.93980000     -28.66680000     -72.07750000
