40
Properties=species:S:1:pos:R:3 #=T CELL(abcABC):=T 1.889726e+02=T 90.00000=T Traj:=T positionsangstrom=T Step:=T 0=T Bead:=T pbc="F F F"
C      -43.93830000     -31.23310000     -70.65990000
C      -44.01270000     -31.12110000     -72.02890000
C      -43.39500000     -32.06150000     -72.89290000
C      -42.67050000     -33.17270000     -72.38950000
C      -42.63140000     -33.29860000     -70.97000000
C      -43.17500000     -32.27920000     -70.13790000
H      -44.30360000     -30.30560000     -70.12220000
H      -43.50190000     -32.08990000     -73.95290000
H      -42.32920000     -34.26620000     -70.47050000
H      -43.15260000     -32.37710000     -69.05600000
C      -42.16420000     -34.29850000     -73.20430000
H      -41.22470000     -34.65190000     -72.84680000
H      -42.09400000     -34.09800000     -74.26160000
C      -44.80520000     -30.06010000     -72.73610000
H      -44.71840000     -28.99340000     -72.44740000
H      -44.51930000     -30.09420000     -73.87840000
S      -43.22790000     -35.83390000     -73.00290000
S      -46.62810000     -30.27620000     -72.61790000
C      -44.87960000     -35.32130000     -73.43660000
H      -45.01320000     -34.26940000     -73.43340000
H      -45.05900000     -35.66410000     -74.50400000
C      -46.83460000     -32.01540000     -73.17960000
H      -45.93380000     -32.62430000     -73.14140000
H      -47.12790000     -32.12970000     -74.28510000
C      -47.95470000     -32.90520000     -72.41850000
H      -48.89320000     -32.45530000     -72.56480000
H      -47.94460000     -33.86430000     -72.95000000
C      -45.97410000     -35.93890000     -72.52450000
H      -45.95960000     -37.02100000     -72.40840000
H      -46.93590000     -35.67100000     -72.97060000
C      -45.86030000     -35.33410000     -71.18150000
C      -45.26600000     -36.08170000     -70.18380000
C      -46.68530000     -34.29450000     -70.58230000
H      -44.57790000     -36.97640000     -70.29130000
C      -46.45130000     -34.08480000     -69.22040000
C      -47.57360000     -33.18630000     -70.95140000
C      -48.03680000     -32.42250000     -69.91190000
S      -45.43370000     -35.33310000     -68.54470000
S      -47.25620000     -32.79710000     -68.43700000
H      -48.70460000     -31.58920000     -69.99980000
