40
Properties=species:S:1:pos:R:3 #=T CELL(abcABC):=T 1.889726e+02=T 90.00000=T Traj:=T positionsangstrom=T Step:=T 0=T Bead:=T pbc="F F F"
C      -47.87670000     -36.08470000     -72.36480000
C      -47.11370000     -36.17180000     -71.16260000
C      -45.69830000     -36.41220000     -71.26130000
C      -45.05260000     -36.59400000     -72.45490000
C      -45.85490000     -36.32050000     -73.64760000
C      -47.19630000     -36.03890000     -73.62240000
H      -48.99360000     -36.09250000     -72.35100000
H      -45.09580000     -36.39530000     -70.38140000
H      -45.39640000     -36.32600000     -74.60970000
H      -47.79850000     -35.83390000     -74.55130000
C      -43.61560000     -37.05070000     -72.54110000
H      -43.50840000     -37.24620000     -73.61860000
H      -43.43020000     -37.89770000     -71.88740000
C      -47.66930000     -36.32510000     -69.72510000
H      -48.75300000     -36.43830000     -69.69680000
H      -47.22310000     -37.19770000     -69.20750000
S      -42.47120000     -35.86200000     -71.88180000
S      -47.13670000     -34.96120000     -68.55370000
C      -42.97540000     -34.25030000     -72.51810000
H      -42.02230000     -33.63350000     -72.55710000
H      -43.49370000     -34.36480000     -73.50810000
C      -47.19850000     -33.52170000     -69.64490000
H      -48.10500000     -32.91610000     -69.69900000
H      -47.05790000     -33.80710000     -70.65350000
C      -45.96760000     -32.64940000     -69.20960000
H      -46.08270000     -32.34770000     -68.18220000
H      -44.96290000     -33.14770000     -69.19420000
C      -43.88000000     -33.43770000     -71.51860000
H      -43.30170000     -33.34990000     -70.54150000
H      -44.83480000     -33.94490000     -71.33820000
C      -44.20820000     -32.00010000     -71.87520000
C      -43.57040000     -31.38030000     -72.90230000
C      -45.18480000     -31.14040000     -71.25150000
H      -42.90230000     -31.90170000     -73.66050000
C      -45.06090000     -29.81090000     -71.65820000
C      -45.83180000     -31.31300000     -69.95710000
C      -46.27670000     -30.12340000     -69.44360000
S      -43.95560000     -29.65860000     -72.94500000
S      -45.77580000     -28.70300000     -70.52850000
H      -46.63240000     -29.91740000     -68.43660000
