40
Properties=species:S:1:pos:R:3 #=T CELL(abcABC):=T 1.889726e+02=T 90.00000=T Traj:=T positionsangstrom=T Step:=T 0=T Bead:=T pbc="F F F"
C      -47.78950000     -35.90770000     -71.23920000
C      -46.85720000     -36.10450000     -70.20290000
C      -45.55800000     -36.45770000     -70.60290000
C      -45.19650000     -36.60900000     -71.97960000
C      -46.11990000     -36.44920000     -72.97250000
C      -47.42370000     -36.07680000     -72.56820000
H      -48.79900000     -35.70320000     -70.90990000
H      -44.81100000     -36.63760000     -69.86270000
H      -45.77770000     -36.42380000     -74.01030000
H      -48.08280000     -35.96910000     -73.47320000
C      -43.78810000     -36.93250000     -72.33610000
H      -43.70930000     -36.93910000     -73.43220000
H      -43.48920000     -37.93380000     -72.11650000
C      -47.23470000     -35.90720000     -68.77880000
H      -48.20770000     -35.56530000     -68.68160000
H      -47.00640000     -36.73780000     -68.18410000
S      -42.42230000     -35.79860000     -71.72850000
S      -46.05820000     -34.54500000     -68.05320000
C      -42.82130000     -34.22410000     -72.59610000
H      -41.94580000     -33.77960000     -72.82290000
H      -43.31640000     -34.47700000     -73.55160000
C      -46.32800000     -33.18170000     -69.29840000
H      -47.40920000     -32.82550000     -69.33260000
H      -46.11820000     -33.62530000     -70.30090000
C      -45.42130000     -32.03990000     -69.02740000
H      -45.51600000     -31.53640000     -68.05710000
H      -44.33450000     -32.30140000     -69.04870000
C      -43.63980000     -33.37490000     -71.65480000
H      -43.12740000     -33.10200000     -70.71590000
H      -44.51750000     -33.89920000     -71.28360000
C      -44.15730000     -32.07400000     -72.21650000
C      -43.87050000     -31.68610000     -73.48770000
C      -45.05230000     -31.14320000     -71.48950000
H      -43.05800000     -32.13670000     -74.05390000
C      -45.57590000     -30.27060000     -72.39680000
C      -45.60120000     -30.97630000     -70.16970000
C      -46.48180000     -29.94810000     -70.14400000
S      -44.83260000     -30.28100000     -73.97260000
S      -46.62110000     -29.14330000     -71.65670000
H      -47.10610000     -29.64560000     -69.32660000
