40
Properties=species:S:1:pos:R:3 #=T CELL(abcABC):=T 1.889726e+02=T 90.00000=T Traj:=T positionsangstrom=T Step:=T 0=T Bead:=T pbc="F F F"
C      -47.63200000     -35.91220000     -71.56740000
C      -46.82960000     -36.30010000     -70.48060000
C      -45.48690000     -36.68030000     -70.76050000
C      -44.98670000     -36.79990000     -72.09660000
C      -45.86780000     -36.48540000     -73.17090000
C      -47.19760000     -35.99890000     -72.90640000
H      -48.63940000     -35.50380000     -71.41530000
H      -44.87160000     -36.89260000     -69.87040000
H      -45.52560000     -36.67050000     -74.18520000
H      -47.92690000     -35.83890000     -73.70020000
C      -43.54910000     -37.20110000     -72.36250000
H      -43.36430000     -37.43720000     -73.38550000
H      -43.20560000     -38.08660000     -71.85950000
C      -47.23540000     -35.97100000     -69.01880000
H      -48.31530000     -35.71010000     -68.93240000
H      -47.07690000     -36.80590000     -68.33720000
S      -42.37340000     -35.87170000     -71.82430000
S      -46.24200000     -34.63330000     -68.23670000
C      -43.12280000     -34.26950000     -72.41270000
H      -42.28280000     -33.63290000     -72.79350000
H      -43.74270000     -34.48360000     -73.32070000
C      -46.69250000     -33.10680000     -69.18790000
H      -47.69740000     -32.68450000     -68.89200000
H      -46.73340000     -33.08410000     -70.26510000
C      -45.58790000     -31.97770000     -68.87040000
H      -45.76870000     -31.55300000     -67.92730000
H      -44.65290000     -32.50540000     -68.78140000
C      -43.94240000     -33.48480000     -71.48130000
H      -43.31070000     -33.16650000     -70.61670000
H      -44.72300000     -34.14090000     -71.01650000
C      -44.57670000     -32.25240000     -72.12470000
C      -44.23420000     -31.85580000     -73.42680000
C      -45.14260000     -31.15650000     -71.36820000
H      -43.68010000     -32.31600000     -74.21500000
C      -45.34280000     -30.02530000     -72.22000000
C      -45.69300000     -30.96600000     -70.00050000
C      -46.28080000     -29.71260000     -69.92120000
S      -44.82500000     -30.22650000     -73.85040000
S      -46.25180000     -28.72430000     -71.43730000
H      -46.75140000     -29.20890000     -69.05450000
