40
Properties=species:S:1:pos:R:3 #=T CELL(abcABC):=T 1.889726e+02=T 90.00000=T Traj:=T positionsangstrom=T Step:=T 0=T Bead:=T pbc="F F F"
C      -47.81930000     -35.90670000     -71.36400000
C      -46.95720000     -36.23680000     -70.28120000
C      -45.64560000     -36.60340000     -70.60770000
C      -45.15410000     -36.63140000     -71.89280000
C      -46.01060000     -36.22820000     -72.88300000
C      -47.32450000     -35.89300000     -72.63110000
H      -48.84070000     -35.66710000     -71.12760000
H      -44.99770000     -36.90640000     -69.83500000
H      -45.68490000     -36.11390000     -73.90750000
H      -48.00860000     -35.57620000     -73.41380000
C      -43.83080000     -37.14040000     -72.17040000
H      -43.68310000     -37.36770000     -73.22880000
H      -43.73480000     -38.00180000     -71.56430000
C      -47.32460000     -36.02080000     -68.91150000
H      -48.35620000     -35.62190000     -68.79840000
H      -47.10030000     -36.83110000     -68.23080000
S      -42.45880000     -35.95250000     -71.72940000
S      -46.29650000     -34.63930000     -68.13340000
C      -43.22430000     -34.43530000     -72.63820000
H      -42.39960000     -33.87240000     -72.95230000
H      -43.88330000     -34.74850000     -73.42500000
C      -46.69340000     -33.24830000     -69.24300000
H      -47.74170000     -32.95640000     -69.15760000
H      -46.68210000     -33.63900000     -70.22010000
C      -45.72030000     -32.08120000     -69.16010000
H      -45.89900000     -31.58020000     -68.19680000
H      -44.74980000     -32.51250000     -69.09900000
C      -44.02090000     -33.52510000     -71.65610000
H      -43.46790000     -33.29150000     -70.78070000
H      -44.99330000     -33.99200000     -71.46450000
C      -44.40070000     -32.21850000     -72.29030000
C      -43.89170000     -31.79870000     -73.50190000
C      -45.23510000     -31.18210000     -71.62520000
H      -43.21580000     -32.29570000     -74.12410000
C      -45.34850000     -30.04330000     -72.42560000
C      -45.72050000     -31.03800000     -70.28900000
C      -46.25970000     -29.76360000     -70.08370000
S      -44.42480000     -30.15670000     -73.91240000
S      -46.00940000     -28.74550000     -71.46660000
H      -46.74820000     -29.45680000     -69.14190000
