40
Properties=species:S:1:pos:R:3 #=T CELL(abcABC):=T 1.889726e+02=T 90.00000=T Traj:=T positionsangstrom=T Step:=T 0=T Bead:=T pbc="F F F"
C      -47.71980000     -35.81530000     -71.41560000
C      -46.91760000     -36.22420000     -70.31000000
C      -45.64590000     -36.70330000     -70.58770000
C      -45.23920000     -36.80960000     -71.88900000
C      -46.11450000     -36.55660000     -72.96350000
C      -47.42090000     -36.05230000     -72.75190000
H      -48.67250000     -35.28320000     -71.29740000
H      -44.86600000     -36.82250000     -69.73910000
H      -45.81740000     -36.83280000     -73.96700000
H      -48.14470000     -35.76380000     -73.51980000
C      -43.76770000     -37.12550000     -72.16420000
H      -43.56270000     -37.31740000     -73.22490000
H      -43.45570000     -38.03290000     -71.60030000
C      -47.33420000     -35.95310000     -68.89020000
H      -48.42160000     -35.92060000     -68.83120000
H      -47.04370000     -36.88150000     -68.34650000
S      -42.60080000     -35.85900000     -71.62750000
S      -46.36460000     -34.56850000     -68.17730000
C      -43.12860000     -34.42430000     -72.63420000
H      -42.17500000     -33.92540000     -72.95670000
H      -43.59310000     -34.65640000     -73.60690000
C      -46.72710000     -33.22110000     -69.43710000
H      -47.70010000     -32.77030000     -69.24950000
H      -46.55810000     -33.62250000     -70.47450000
C      -45.66030000     -32.15730000     -69.13330000
H      -45.91880000     -31.71210000     -68.17510000
H      -44.63760000     -32.58620000     -69.01760000
C      -43.98510000     -33.51150000     -71.77700000
H      -43.38450000     -33.40420000     -70.80910000
H      -44.81500000     -34.07380000     -71.30970000
C      -44.49060000     -32.22410000     -72.29960000
C      -44.17390000     -31.85120000     -73.57660000
C      -45.12090000     -31.17540000     -71.53220000
H      -43.56900000     -32.47460000     -74.33570000
C      -45.13760000     -30.01040000     -72.24780000
C      -45.62880000     -31.01510000     -70.19210000
C      -46.10020000     -29.70570000     -70.04330000
S      -44.50020000     -30.15260000     -73.89400000
S      -45.86770000     -28.68000000     -71.44360000
H      -46.48170000     -29.34220000     -69.09540000
