40
Properties=species:S:1:pos:R:3 #=T CELL(abcABC):=T 1.889726e+02=T 90.00000=T Traj:=T positionsangstrom=T Step:=T 0=T Bead:=T pbc="F F F"
C      -43.26020000     -32.04720000     -70.81210000
C      -43.10870000     -32.77000000     -72.04280000
C      -43.03680000     -34.16310000     -72.01360000
C      -43.36460000     -34.92740000     -70.82570000
C      -43.61600000     -34.18940000     -69.66550000
C      -43.43820000     -32.76980000     -69.63790000
H      -43.39190000     -30.94150000     -70.86190000
H      -42.78340000     -34.74630000     -72.95140000
H      -43.87390000     -34.69980000     -68.76080000
H      -43.76650000     -32.22300000     -68.71820000
C      -43.48120000     -36.42520000     -70.90970000
H      -43.34390000     -36.84150000     -69.95440000
H      -42.64760000     -36.83760000     -71.58740000
C      -42.69820000     -31.94440000     -73.27750000
H      -41.93440000     -31.19780000     -72.96520000
H      -42.27560000     -32.51460000     -74.12110000
S      -45.09690000     -37.08740000     -71.43220000
S      -44.15150000     -31.10100000     -74.13170000
C      -45.81550000     -35.79690000     -72.49820000
H      -45.09740000     -34.97110000     -72.41960000
H      -45.72810000     -36.21690000     -73.55210000
C      -45.33780000     -32.52010000     -74.29920000
H      -44.78050000     -33.31640000     -73.88870000
H      -45.40110000     -32.65130000     -75.37440000
C      -46.56190000     -32.17440000     -73.53360000
H      -46.95340000     -31.29570000     -74.08700000
H      -47.34670000     -32.92840000     -73.63560000
C      -47.20540000     -35.31120000     -72.15290000
H      -47.82060000     -36.18240000     -71.97380000
H      -47.56330000     -34.83040000     -73.04560000
C      -47.15860000     -34.47080000     -70.93100000
C      -47.15970000     -34.95880000     -69.61880000
C      -46.92680000     -33.00960000     -71.03400000
H      -47.40860000     -35.93380000     -69.23550000
C      -46.85340000     -32.45410000     -69.74900000
C      -46.47080000     -32.00460000     -72.01500000
C      -46.26260000     -30.83700000     -71.31890000
S      -47.07990000     -33.59660000     -68.42670000
S      -46.54600000     -30.79870000     -69.61090000
H      -46.01110000     -29.85280000     -71.77520000
