40
Properties=species:S:1:pos:R:3 #=T CELL(abcABC):=T 1.889726e+02=T 90.00000=T Traj:=T positionsangstrom=T Step:=T 0=T Bead:=T pbc="F F F"
C      -47.98130000     -36.21860000     -71.64610000
C      -47.04340000     -35.92150000     -70.64250000
C      -45.78060000     -36.37470000     -70.80750000
C      -45.29810000     -36.75250000     -72.07590000
C      -46.15110000     -36.76520000     -73.17140000
C      -47.55240000     -36.52220000     -72.91630000
H      -49.04720000     -35.85970000     -71.53900000
H      -45.06550000     -36.33720000     -69.97980000
H      -45.81830000     -36.95020000     -74.12360000
H      -48.27040000     -36.65130000     -73.69390000
C      -43.84530000     -37.15370000     -72.18770000
H      -43.48410000     -37.29220000     -73.22260000
H      -43.69720000     -38.15230000     -71.72280000
C      -47.54700000     -35.65280000     -69.25130000
H      -48.58130000     -35.43200000     -69.26600000
H      -47.40520000     -36.58970000     -68.70270000
S      -42.60100000     -36.00420000     -71.33180000
S      -46.45730000     -34.50670000     -68.23050000
C      -42.90060000     -34.43510000     -72.29110000
H      -41.91690000     -33.97410000     -72.48750000
H      -43.26080000     -34.53210000     -73.32260000
C      -46.59680000     -32.94590000     -69.18500000
H      -47.53000000     -32.39160000     -68.97010000
H      -46.60250000     -33.27860000     -70.23310000
C      -45.41820000     -32.00010000     -68.95520000
H      -45.55180000     -31.47010000     -67.98290000
H      -44.46990000     -32.55470000     -69.06010000
C      -43.84390000     -33.52260000     -71.53050000
H      -43.37710000     -33.16430000     -70.61830000
H      -44.60450000     -34.15700000     -71.13700000
C      -44.33520000     -32.27720000     -72.18680000
C      -44.18660000     -32.00440000     -73.54610000
C      -44.99430000     -31.17810000     -71.53100000
H      -43.63130000     -32.66410000     -74.28990000
C      -45.23840000     -30.02680000     -72.29250000
C      -45.37740000     -30.89140000     -70.10100000
C      -45.67490000     -29.54610000     -69.96180000
S      -44.78420000     -30.35510000     -73.99830000
S      -45.70910000     -28.55370000     -71.42060000
H      -46.08270000     -29.03350000     -69.15500000
