40
Properties=species:S:1:pos:R:3 #=T CELL(abcABC):=T 1.889726e+02=T 90.00000=T Traj:=T positionsangstrom=T Step:=T 0=T Bead:=T pbc="F F F"
C      -47.62190000     -35.76710000     -73.52920000
C      -46.34760000     -35.35910000     -73.87820000
C      -45.26550000     -35.81990000     -73.09060000
C      -45.43690000     -36.63270000     -71.94230000
C      -46.75520000     -36.88100000     -71.54260000
C      -47.87070000     -36.44000000     -72.29670000
H      -48.52810000     -35.22340000     -74.02860000
H      -44.28250000     -35.60330000     -73.48020000
H      -46.97340000     -37.38450000     -70.62610000
H      -48.80360000     -36.73630000     -71.79370000
C      -44.17840000     -37.32190000     -71.15640000
H      -43.71240000     -38.02950000     -71.84320000
H      -44.72000000     -37.83970000     -70.37410000
C      -46.10870000     -34.65830000     -75.19350000
H      -45.60480000     -35.37660000     -75.95260000
H      -47.08270000     -34.29140000     -75.59570000
S      -42.89750000     -36.21240000     -70.62650000
S      -45.02260000     -33.15650000     -75.05860000
C      -44.02360000     -35.19980000     -69.46710000
H      -44.86020000     -35.84400000     -69.30980000
H      -43.39950000     -34.93030000     -68.56440000
C      -45.75580000     -32.37840000     -73.45180000
H      -46.20070000     -33.17900000     -72.76010000
H      -46.62780000     -31.72710000     -73.74270000
C      -44.53480000     -31.62120000     -72.64900000
H      -43.93220000     -32.46830000     -72.28720000
H      -44.00300000     -31.00280000     -73.39730000
C      -44.34340000     -33.88420000     -70.20370000
H      -44.87040000     -34.07960000     -71.14340000
H      -43.36790000     -33.45680000     -70.58400000
C      -44.94600000     -32.75420000     -69.48170000
C      -45.23340000     -32.77190000     -68.11240000
C      -45.05580000     -31.46200000     -70.13010000
H      -44.89420000     -33.57080000     -67.47410000
C      -45.52190000     -30.52810000     -69.14780000
C      -44.92440000     -30.81650000     -71.41520000
C      -45.45370000     -29.53810000     -71.43440000
S      -45.76080000     -31.17730000     -67.51250000
S      -46.04810000     -29.03230000     -69.85080000
H      -45.51490000     -28.91410000     -72.25210000
