40
Properties=species:S:1:pos:R:3 #=T CELL(abcABC):=T 1.889726e+02=T 90.00000=T Traj:=T positionsangstrom=T Step:=T 0=T Bead:=T pbc="F F F"
C      -47.29020000     -32.57600000     -73.46210000
C      -48.03350000     -32.52630000     -72.24650000
C      -47.72650000     -31.45860000     -71.36940000
C      -46.72910000     -30.54410000     -71.60820000
C      -45.99110000     -30.62210000     -72.82120000
C      -46.25520000     -31.67680000     -73.74090000
H      -47.68940000     -33.27230000     -74.19190000
H      -48.22830000     -31.28460000     -70.41750000
H      -45.25630000     -29.88120000     -73.15540000
H      -45.79330000     -31.70260000     -74.77650000
C      -46.42710000     -29.46020000     -70.51970000
H      -47.36660000     -28.96870000     -70.28590000
H      -45.76400000     -28.67200000     -70.91700000
C      -49.13540000     -33.52720000     -72.09750000
H      -50.13520000     -33.09780000     -71.89370000
H      -49.18640000     -34.12550000     -72.99750000
S      -45.64900000     -30.11770000     -68.95210000
S      -48.82340000     -34.72570000     -70.75080000
C      -44.13380000     -31.12900000     -69.53560000
H      -43.64820000     -30.50060000     -70.29850000
H      -43.34520000     -31.32810000     -68.82720000
C      -47.24800000     -35.46660000     -71.31080000
H      -46.93580000     -34.82870000     -72.11280000
H      -47.31990000     -36.51650000     -71.68000000
C      -46.11620000     -35.43920000     -70.25590000
H      -46.09710000     -34.47310000     -69.69700000
H      -46.29300000     -36.16430000     -69.43170000
C      -44.56520000     -32.52470000     -70.00320000
H      -45.38030000     -32.39940000     -70.79080000
H      -44.80450000     -33.10400000     -69.18250000
C      -43.54730000     -33.28880000     -70.82450000
C      -42.33180000     -32.85510000     -71.28670000
C      -43.72810000     -34.69490000     -71.14930000
H      -41.92380000     -31.86340000     -71.11380000
C      -42.67780000     -35.26670000     -71.83400000
C      -44.74650000     -35.65450000     -71.02120000
C      -44.43250000     -36.88400000     -71.54740000
S      -41.37080000     -34.10830000     -72.09550000
S      -42.83040000     -36.89290000     -72.18290000
H      -45.07770000     -37.80460000     -71.49840000
