40
Properties=species:S:1:pos:R:3 #=T CELL(abcABC):=T 1.889726e+02=T 90.00000=T Traj:=T positionsangstrom=T Step:=T 0=T Bead:=T pbc="F F F"
C      -43.03290000     -30.37830000     -71.19190000
C      -44.14410000     -30.49730000     -70.25450000
C      -44.09510000     -31.41990000     -69.25200000
C      -42.90420000     -32.19400000     -69.08930000
C      -41.83220000     -32.09250000     -70.03140000
C      -41.89500000     -31.20090000     -71.06330000
H      -43.19200000     -29.62580000     -71.93160000
H      -44.86850000     -31.49710000     -68.43950000
H      -40.95210000     -32.74110000     -69.92180000
H      -40.98430000     -30.88120000     -71.68250000
C      -42.87120000     -33.08650000     -67.88540000
H      -43.75890000     -32.80810000     -67.21640000
H      -42.03220000     -32.87670000     -67.27690000
C      -45.22510000     -29.44880000     -70.46360000
H      -46.01630000     -29.64000000     -69.79150000
H      -44.79810000     -28.44400000     -70.22730000
S      -42.89050000     -34.87300000     -68.37990000
S      -46.03420000     -29.48170000     -72.12410000
C      -44.60570000     -35.22110000     -69.09190000
H      -44.72190000     -36.31960000     -68.98220000
H      -45.34420000     -34.76620000     -68.43940000
C      -45.99470000     -31.19850000     -72.73430000
H      -44.88690000     -31.45810000     -72.84010000
H      -46.47030000     -31.26140000     -73.75210000
C      -46.76200000     -32.20460000     -71.81300000
H      -46.31890000     -32.39650000     -70.90390000
H      -47.67050000     -31.65610000     -71.41770000
C      -44.71640000     -34.86420000     -70.55110000
H      -43.72010000     -35.08510000     -70.93730000
H      -44.80460000     -33.71790000     -70.58490000
C      -45.80340000     -35.50670000     -71.33020000
C      -45.66650000     -36.84190000     -71.66680000
C      -46.62460000     -34.82160000     -72.31010000
H      -45.03920000     -37.50390000     -71.07460000
C      -47.22800000     -35.68420000     -73.18060000
C      -47.15630000     -33.47200000     -72.50600000
C      -48.05710000     -33.47370000     -73.52830000
S      -46.68280000     -37.37150000     -73.02740000
S      -48.56220000     -35.01050000     -74.14670000
H      -48.77580000     -32.61960000     -73.79390000
