40
Properties=species:S:1:pos:R:3 #=T CELL(abcABC):=T 1.889726e+02=T 90.00000=T Traj:=T positionsangstrom=T Step:=T 0=T Bead:=T pbc="F F F"
C      -45.43070000     -36.19380000     -69.01610000
C      -44.32970000     -35.30510000     -68.70070000
C      -43.23030000     -35.15330000     -69.55960000
C      -43.14430000     -35.91580000     -70.74040000
C      -44.17980000     -36.79510000     -71.01280000
C      -45.33560000     -36.87410000     -70.18900000
H      -46.21840000     -36.42670000     -68.26510000
H      -42.43200000     -34.52720000     -69.18920000
H      -44.08460000     -37.49090000     -71.82870000
H      -46.13470000     -37.51720000     -70.48640000
C      -42.19830000     -35.61410000     -71.80730000
H      -41.56500000     -36.45170000     -71.95530000
H      -41.60140000     -34.70560000     -71.70020000
C      -44.24660000     -34.58060000     -67.38170000
H      -45.05460000     -34.78650000     -66.68290000
H      -43.31730000     -35.08370000     -66.88860000
S      -42.90150000     -35.48740000     -73.53140000
S      -43.77160000     -32.85290000     -67.52140000
C      -43.90970000     -33.85950000     -73.45570000
H      -43.36670000     -33.28740000     -72.68700000
H      -43.79070000     -33.43160000     -74.45630000
C      -45.14020000     -32.06140000     -68.59400000
H      -44.81310000     -31.01770000     -68.65250000
H      -46.05520000     -32.11920000     -67.89710000
C      -45.39930000     -32.50720000     -70.09320000
H      -44.36250000     -32.39690000     -70.65610000
H      -45.66860000     -33.57500000     -70.16440000
C      -45.37900000     -34.22120000     -73.32020000
H      -45.56370000     -34.84380000     -72.46130000
H      -45.57190000     -34.82600000     -74.22180000
C      -46.20930000     -32.91780000     -73.36630000
C      -46.82070000     -32.67350000     -74.61130000
C      -46.57760000     -31.94450000     -72.30150000
H      -46.74910000     -33.20910000     -75.53580000
C      -47.50080000     -31.08550000     -72.89310000
C      -46.33050000     -31.65160000     -70.89250000
C      -47.09110000     -30.56530000     -70.47560000
S      -47.92770000     -31.36080000     -74.59350000
S      -48.15410000     -29.96220000     -71.73310000
H      -47.26670000     -30.24790000     -69.41310000
