40
Properties=species:S:1:pos:R:3 #=T CELL(abcABC):=T 1.889726e+02=T 90.00000=T Traj:=T positionsangstrom=T Step:=T 0=T Bead:=T pbc="F F F"
C      -43.17170000     -32.52140000     -70.81310000
C      -42.92140000     -33.52280000     -71.74710000
C      -43.30610000     -34.88600000     -71.38540000
C      -43.91580000     -35.23820000     -70.21010000
C      -44.00790000     -34.21330000     -69.24350000
C      -43.72370000     -32.90950000     -69.60020000
H      -43.01850000     -31.48100000     -71.02850000
H      -42.98090000     -35.71060000     -72.00290000
H      -44.43720000     -34.28960000     -68.20490000
H      -43.76740000     -32.08210000     -68.81240000
C      -44.16040000     -36.68770000     -69.95440000
H      -44.13170000     -37.03000000     -68.93130000
H      -43.47840000     -37.31990000     -70.63680000
C      -42.23250000     -33.36500000     -73.05290000
H      -41.34290000     -32.73490000     -72.92600000
H      -42.11550000     -34.30560000     -73.52570000
S      -45.91600000     -37.05910000     -70.39020000
S      -43.28580000     -32.45910000     -74.30440000
C      -46.37440000     -36.19200000     -72.00540000
H      -45.42720000     -35.80070000     -72.47210000
H      -46.73930000     -36.87370000     -72.71080000
C      -44.93640000     -33.20340000     -73.95680000
H      -44.99270000     -33.84790000     -73.08610000
H      -45.17610000     -33.79710000     -74.83270000
C      -46.14840000     -32.22960000     -73.94470000
H      -46.05850000     -31.55360000     -74.83420000
H      -47.01060000     -32.84900000     -74.27070000
C      -47.35880000     -35.03200000     -71.98000000
H      -48.36220000     -35.39660000     -71.64620000
H      -47.32220000     -34.82420000     -73.06290000
C      -47.08870000     -33.84580000     -71.07690000
C      -47.35790000     -33.97960000     -69.74400000
C      -46.66290000     -32.44540000     -71.43400000
H      -47.74940000     -34.92560000     -69.26210000
C      -46.64660000     -31.67470000     -70.28520000
C      -46.33120000     -31.62350000     -72.56390000
C      -46.06350000     -30.28790000     -72.28770000
S      -47.14740000     -32.47940000     -68.85930000
S      -46.22590000     -29.98550000     -70.55540000
H      -45.76600000     -29.55150000     -73.01300000
