40
Properties=species:S:1:pos:R:3 #=T CELL(abcABC):=T 1.889726e+02=T 90.00000=T Traj:=T positionsangstrom=T Step:=T 0=T Bead:=T pbc="F F F"
C      -47.88560000     -36.00060000     -71.55720000
C      -46.97720000     -36.05830000     -70.53630000
C      -45.69040000     -36.50030000     -70.73770000
C      -45.31150000     -36.87390000     -72.01930000
C      -46.22620000     -36.80200000     -73.10060000
C      -47.53750000     -36.43980000     -72.87020000
H      -48.98840000     -35.79360000     -71.39980000
H      -45.01710000     -36.48250000     -69.91870000
H      -45.85800000     -36.98610000     -74.10120000
H      -48.26620000     -36.51630000     -73.64950000
C      -43.81380000     -37.14030000     -72.33320000
H      -43.57110000     -36.94590000     -73.43520000
H      -43.50800000     -38.12610000     -72.02000000
C      -47.51290000     -35.61570000     -69.19130000
H      -48.62180000     -35.40260000     -69.35970000
H      -47.47980000     -36.38080000     -68.38250000
S      -42.59440000     -36.02220000     -71.45620000
S      -46.60130000     -34.33320000     -68.33080000
C      -42.95930000     -34.39990000     -72.25340000
H      -41.95610000     -33.95800000     -72.51230000
H      -43.51980000     -34.62850000     -73.12880000
C      -46.59340000     -32.86260000     -69.51190000
H      -47.43920000     -32.19660000     -69.39190000
H      -46.52540000     -33.15070000     -70.56130000
C      -45.41520000     -32.02340000     -69.05690000
H      -45.70520000     -31.58980000     -68.10650000
H      -44.51670000     -32.57000000     -68.81980000
C      -43.76370000     -33.47660000     -71.34870000
H      -43.23060000     -33.14520000     -70.47570000
H      -44.73940000     -33.88310000     -71.08180000
C      -44.25610000     -32.24940000     -72.09900000
C      -44.18410000     -31.97990000     -73.49150000
C      -44.87070000     -31.13450000     -71.46180000
H      -43.65120000     -32.60410000     -74.24090000
C      -45.11820000     -30.01600000     -72.25670000
C      -45.21560000     -30.90510000     -70.05540000
C      -45.75630000     -29.63280000     -69.86140000
S      -44.77620000     -30.43680000     -73.93100000
S      -45.82770000     -28.68720000     -71.46500000
H      -45.98570000     -29.14780000     -68.90500000
