40
Properties=species:S:1:pos:R:3 #=T CELL(abcABC):=T 1.889726e+02=T 90.00000=T Traj:=T positionsangstrom=T Step:=T 0=T Bead:=T pbc="F F F"
C      -47.96010000     -36.03380000     -71.56400000
C      -47.05310000     -35.97270000     -70.47920000
C      -45.69000000     -36.32040000     -70.74430000
C      -45.26200000     -36.78900000     -71.98800000
C      -46.18800000     -36.77010000     -73.05630000
C      -47.54080000     -36.43530000     -72.83820000
H      -48.96850000     -35.76870000     -71.37130000
H      -45.01180000     -36.35610000     -69.93110000
H      -46.06560000     -37.08860000     -74.15830000
H      -48.10030000     -36.32780000     -73.77800000
C      -43.84840000     -37.24540000     -72.25170000
H      -43.81390000     -37.33350000     -73.31770000
H      -43.61450000     -38.20510000     -71.79600000
C      -47.48010000     -35.78270000     -69.07050000
H      -48.52700000     -35.47370000     -69.08280000
H      -47.33790000     -36.63930000     -68.44300000
S      -42.49970000     -36.04700000     -71.67560000
S      -46.60300000     -34.35080000     -68.21920000
C      -42.93970000     -34.41760000     -72.46560000
H      -42.03120000     -33.87340000     -72.72320000
H      -43.42150000     -34.68810000     -73.43150000
C      -46.53320000     -33.00910000     -69.37810000
H      -47.57520000     -32.58590000     -69.47470000
H      -46.26450000     -33.42830000     -70.36080000
C      -45.46710000     -31.93150000     -68.99530000
H      -45.68830000     -31.44460000     -68.04840000
H      -44.51290000     -32.46630000     -68.81930000
C      -43.74110000     -33.45850000     -71.49440000
H      -43.07320000     -33.35100000     -70.57590000
H      -44.63350000     -34.10330000     -71.20000000
C      -44.18830000     -32.21170000     -72.05810000
C      -44.05820000     -31.94220000     -73.44300000
C      -44.88320000     -31.17090000     -71.40910000
H      -43.66200000     -32.54670000     -74.19290000
C      -45.14220000     -30.03770000     -72.23580000
C      -45.35140000     -30.89000000     -70.08380000
C      -46.05200000     -29.70410000     -70.06180000
S      -44.71600000     -30.34070000     -73.87980000
S      -45.86840000     -28.69340000     -71.44520000
H      -46.38770000     -29.19990000     -69.10360000
