40
Properties=species:S:1:pos:R:3 #=T CELL(abcABC):=T 1.889726e+02=T 90.00000=T Traj:=T positionsangstrom=T Step:=T 0=T Bead:=T pbc="F F F"
C      -43.06810000     -30.41290000     -71.39620000
C      -44.17700000     -30.44910000     -70.52290000
C      -44.07420000     -31.43380000     -69.40020000
C      -42.89700000     -32.22930000     -69.14320000
C      -41.84060000     -32.14600000     -70.07180000
C      -41.95570000     -31.25060000     -71.15670000
H      -43.07070000     -29.54990000     -72.12050000
H      -44.89120000     -31.52270000     -68.70400000
H      -40.96120000     -32.75330000     -70.13460000
H      -41.12390000     -31.32340000     -71.82080000
C      -42.79420000     -33.08630000     -67.86250000
H      -43.48420000     -32.88940000     -67.11980000
H      -41.80230000     -32.87460000     -67.41380000
C      -45.42740000     -29.55750000     -70.51260000
H      -46.27390000     -29.86170000     -69.89020000
H      -45.34460000     -28.53860000     -70.19530000
S      -42.87700000     -34.82850000     -68.28540000
S      -46.03210000     -29.50700000     -72.24670000
C      -44.47920000     -34.85140000     -69.27890000
H      -44.83560000     -35.85870000     -69.14990000
H      -45.19760000     -34.18070000     -68.71700000
C      -45.95720000     -31.24730000     -72.70520000
H      -44.89610000     -31.63380000     -72.75540000
H      -46.44920000     -31.26590000     -73.71860000
C      -46.86810000     -32.16120000     -71.93360000
H      -46.42600000     -32.49820000     -70.92320000
H      -47.82290000     -31.65980000     -71.88720000
C      -44.51250000     -34.53380000     -70.73460000
H      -43.49000000     -34.77370000     -71.20350000
H      -44.70900000     -33.48890000     -70.84040000
C      -45.50630000     -35.34270000     -71.50770000
C      -45.52310000     -36.73310000     -71.52170000
C      -46.56660000     -34.76860000     -72.31920000
H      -44.85770000     -37.27150000     -70.85650000
C      -47.29660000     -35.80810000     -73.00430000
C      -47.20390000     -33.50570000     -72.55330000
C      -48.23770000     -33.58690000     -73.45030000
S      -46.73580000     -37.38490000     -72.58870000
S      -48.60970000     -35.22360000     -74.07000000
H      -48.74830000     -32.74640000     -73.78440000
