40
Properties=species:S:1:pos:R:3 #=T CELL(abcABC):=T 1.889726e+02=T 90.00000=T Traj:=T positionsangstrom=T Step:=T 0=T Bead:=T pbc="F F F"
C      -42.76080000     -32.60520000     -70.81970000
C      -42.77620000     -33.48870000     -71.94370000
C      -43.29670000     -34.80820000     -71.78110000
C      -43.76410000     -35.17440000     -70.44940000
C      -43.89700000     -34.25720000     -69.46980000
C      -43.33890000     -32.95320000     -69.60750000
H      -42.18480000     -31.70670000     -70.88930000
H      -43.23450000     -35.55190000     -72.55770000
H      -44.32820000     -34.62940000     -68.47830000
H      -43.17840000     -32.32810000     -68.67660000
C      -44.20590000     -36.60950000     -70.32100000
H      -43.79780000     -37.06320000     -69.46750000
H      -43.81020000     -37.28230000     -71.11630000
C      -42.10470000     -33.18170000     -73.27280000
H      -41.25470000     -32.47830000     -73.11930000
H      -41.64970000     -33.99950000     -73.83190000
S      -46.05720000     -36.79550000     -70.11020000
S      -43.32370000     -32.43600000     -74.41210000
C      -46.58470000     -36.00100000     -71.70820000
H      -45.72370000     -35.49760000     -72.02610000
H      -46.83900000     -36.91400000     -72.35640000
C      -44.90860000     -33.41880000     -74.36150000
H      -44.90840000     -34.45890000     -73.93590000
H      -45.14390000     -33.61910000     -75.38120000
C      -46.19360000     -32.77730000     -73.86360000
H      -46.44680000     -31.90780000     -74.48190000
H      -46.99120000     -33.46410000     -73.92680000
C      -47.73360000     -35.09130000     -71.53960000
H      -48.55900000     -35.60430000     -70.96040000
H      -48.23620000     -34.71950000     -72.48650000
C      -47.40290000     -33.82420000     -70.75360000
C      -47.91240000     -33.63570000     -69.51460000
C      -46.73890000     -32.60580000     -71.20920000
H      -48.35030000     -34.41060000     -68.85580000
C      -46.69500000     -31.60120000     -70.24030000
C      -46.08670000     -32.19020000     -72.47480000
C      -45.56210000     -30.96260000     -72.28090000
S      -47.46310000     -32.05790000     -68.75490000
S      -45.90700000     -30.14340000     -70.70380000
H      -44.95180000     -30.41540000     -72.91280000
