40
Properties=species:S:1:pos:R:3 #=T CELL(abcABC):=T 1.889726e+02=T 90.00000=T Traj:=T positionsangstrom=T Step:=T 0=T Bead:=T pbc="F F F"
C      -42.82620000     -32.66370000     -70.98280000
C      -42.66510000     -33.69260000     -71.97000000
C      -43.02490000     -35.03740000     -71.66210000
C      -43.62640000     -35.37000000     -70.44280000
C      -43.84010000     -34.37020000     -69.49600000
C      -43.39500000     -33.05180000     -69.76830000
H      -42.70460000     -31.54800000     -71.26230000
H      -42.80570000     -35.80500000     -72.48210000
H      -44.39220000     -34.64570000     -68.60320000
H      -43.57260000     -32.27750000     -69.08390000
C      -44.12530000     -36.86050000     -70.29150000
H      -43.75520000     -37.30930000     -69.35960000
H      -43.78660000     -37.48760000     -71.15250000
C      -42.20030000     -33.29520000     -73.33900000
H      -41.34940000     -32.69410000     -73.30230000
H      -41.87510000     -34.14030000     -73.96240000
S      -46.03920000     -36.87970000     -70.19420000
S      -43.55440000     -32.43730000     -74.40880000
C      -46.47280000     -35.90060000     -71.77010000
H      -45.57640000     -35.35510000     -72.01750000
H      -46.63700000     -36.53580000     -72.61060000
C      -44.92020000     -33.57720000     -74.10730000
H      -44.71260000     -34.16530000     -73.21230000
H      -44.95390000     -34.28010000     -74.93420000
C      -46.20820000     -32.74870000     -73.73520000
H      -46.40030000     -32.03660000     -74.56010000
H      -47.06700000     -33.44830000     -73.62750000
C      -47.65200000     -34.93540000     -71.59980000
H      -48.45000000     -35.50420000     -71.25450000
H      -47.92660000     -34.63650000     -72.60590000
C      -47.40510000     -33.70630000     -70.77410000
C      -47.93370000     -33.52180000     -69.48620000
C      -46.73110000     -32.49470000     -71.19480000
H      -48.56670000     -34.20640000     -68.93580000
C      -46.62320000     -31.52550000     -70.16570000
C      -46.13490000     -31.99510000     -72.40990000
C      -45.46970000     -30.78860000     -72.21550000
S      -47.66090000     -31.89700000     -68.86920000
S      -45.75810000     -30.08450000     -70.56970000
H      -45.17600000     -30.09210000     -72.94410000
