40
Properties=species:S:1:pos:R:3 #=T CELL(abcABC):=T 1.889726e+02=T 90.00000=T Traj:=T positionsangstrom=T Step:=T 0=T Bead:=T pbc="F F F"
C      -47.59540000     -35.24880000     -72.96180000
C      -46.40480000     -35.30060000     -73.80240000
C      -45.31940000     -36.05780000     -73.30090000
C      -45.40110000     -36.82230000     -72.14980000
C      -46.60440000     -36.90590000     -71.47390000
C      -47.73450000     -36.21300000     -71.90870000
H      -48.43490000     -34.51930000     -73.17230000
H      -44.43950000     -36.00350000     -73.92530000
H      -46.68030000     -37.67620000     -70.64820000
H      -48.67940000     -36.34170000     -71.37210000
C      -44.20870000     -37.57440000     -71.60880000
H      -43.45480000     -37.96520000     -72.36620000
H      -44.53050000     -38.34610000     -70.86220000
C      -46.25980000     -34.48600000     -75.05660000
H      -45.96980000     -34.94220000     -75.99910000
H      -47.21500000     -34.00400000     -75.24110000
S      -43.02270000     -36.48850000     -70.50430000
S      -45.00100000     -33.19540000     -74.76920000
C      -44.13880000     -35.27650000     -69.55290000
H      -44.92850000     -35.81410000     -69.19570000
H      -43.50090000     -34.84490000     -68.79780000
C      -45.73200000     -32.04620000     -73.54280000
H      -46.37120000     -32.66500000     -72.87320000
H      -46.36850000     -31.27260000     -73.95420000
C      -44.59220000     -31.48250000     -72.75210000
H      -43.81170000     -32.24150000     -72.73880000
H      -44.18090000     -30.66390000     -73.37070000
C      -44.74160000     -34.06000000     -70.37510000
H      -45.63230000     -34.43570000     -70.86120000
H      -44.12860000     -33.78480000     -71.24180000
C      -45.13980000     -32.82460000     -69.63280000
C      -45.33830000     -32.81390000     -68.27850000
C      -45.12080000     -31.44000000     -70.18500000
H      -45.49550000     -33.65250000     -67.69260000
C      -45.62320000     -30.58250000     -69.26650000
C      -44.91920000     -30.77860000     -71.49080000
C      -45.21330000     -29.46180000     -71.46860000
S      -45.69410000     -31.20410000     -67.66310000
S      -45.68910000     -28.91050000     -69.80720000
H      -45.33990000     -28.95450000     -72.41620000
