40
Properties=species:S:1:pos:R:3 #=T CELL(abcABC):=T 1.889726e+02=T 90.00000=T Traj:=T positionsangstrom=T Step:=T 0=T Bead:=T pbc="F F F"
C      -42.94310000     -32.69060000     -71.11050000
C      -42.62090000     -33.81880000     -71.98480000
C      -43.07370000     -35.12080000     -71.72260000
C      -43.59030000     -35.49650000     -70.48220000
C      -43.84980000     -34.40040000     -69.57530000
C      -43.57180000     -33.06880000     -69.90040000
H      -42.66070000     -31.69040000     -71.43880000
H      -43.07960000     -35.87990000     -72.51400000
H      -44.31530000     -34.58850000     -68.62190000
H      -43.90770000     -32.19220000     -69.36240000
C      -44.07230000     -36.87150000     -70.20860000
H      -43.90870000     -37.23510000     -69.14970000
H      -43.76410000     -37.54930000     -70.94320000
C      -42.13200000     -33.49460000     -73.32330000
H      -41.34580000     -32.74330000     -73.21950000
H      -41.78360000     -34.45880000     -73.78840000
S      -45.93980000     -36.80940000     -70.33380000
S      -43.38720000     -32.63960000     -74.34300000
C      -46.51440000     -35.65540000     -71.74600000
H      -45.57630000     -34.92970000     -71.81990000
H      -46.66370000     -36.18340000     -72.74280000
C      -45.01390000     -33.59450000     -74.22100000
H      -44.78440000     -34.44800000     -73.61940000
H      -45.31200000     -34.07300000     -75.22370000
C      -46.18730000     -32.60390000     -73.74770000
H      -46.31830000     -31.85880000     -74.49380000
H      -47.07710000     -33.22070000     -73.88290000
C      -47.80670000     -34.85400000     -71.49410000
H      -48.63790000     -35.44120000     -71.01520000
H      -48.21830000     -34.73140000     -72.51450000
C      -47.68130000     -33.57490000     -70.76640000
C      -48.10880000     -33.41240000     -69.41580000
C      -46.84950000     -32.44640000     -71.20300000
H      -48.70760000     -34.12980000     -68.95230000
C      -46.66990000     -31.49370000     -70.16380000
C      -46.21280000     -31.93770000     -72.37770000
C      -45.45060000     -30.78380000     -72.17230000
S      -47.55490000     -31.92760000     -68.68820000
S      -45.67880000     -30.02030000     -70.58670000
H      -44.97810000     -30.26190000     -73.03940000
