40
Properties=species:S:1:pos:R:3 #=T CELL(abcABC):=T 1.889726e+02=T 90.00000=T Traj:=T positionsangstrom=T Step:=T 0=T Bead:=T pbc="F F F"
C      -42.94600000     -32.74030000     -71.12100000
C      -42.72320000     -33.83710000     -71.97400000
C      -42.93600000     -35.18310000     -71.55140000
C      -43.70140000     -35.45280000     -70.39510000
C      -43.93160000     -34.37210000     -69.52960000
C      -43.52490000     -33.07180000     -69.90040000
H      -42.69960000     -31.79210000     -71.47560000
H      -42.56160000     -35.90600000     -72.22420000
H      -44.40910000     -34.47670000     -68.60780000
H      -43.82060000     -32.27830000     -69.17920000
C      -44.38670000     -36.85170000     -70.21410000
H      -44.09880000     -37.35500000     -69.30770000
H      -43.99680000     -37.61180000     -70.95690000
C      -42.10120000     -33.60080000     -73.36670000
H      -41.18370000     -33.02960000     -73.37920000
H      -41.87290000     -34.56170000     -73.79030000
S      -46.19210000     -36.68060000     -70.33920000
S      -43.30050000     -32.56930000     -74.49990000
C      -46.39240000     -35.49880000     -71.65800000
H      -45.77610000     -34.64410000     -71.45450000
H      -46.17370000     -35.87640000     -72.59210000
C      -44.90370000     -33.52240000     -74.13390000
H      -44.72420000     -34.20040000     -73.30590000
H      -45.24940000     -34.06350000     -74.98210000
C      -46.13430000     -32.67920000     -73.80660000
H      -46.20700000     -31.95780000     -74.64350000
H      -47.03590000     -33.35860000     -73.95250000
C      -47.78700000     -34.89680000     -71.55810000
H      -48.40820000     -35.60730000     -71.00670000
H      -48.16640000     -34.67640000     -72.50730000
C      -47.63300000     -33.63880000     -70.70140000
C      -48.03240000     -33.52910000     -69.35240000
C      -46.81880000     -32.43640000     -71.11740000
H      -48.61060000     -34.20930000     -68.78840000
C      -46.66310000     -31.44060000     -70.14520000
C      -46.12980000     -32.03690000     -72.37960000
C      -45.50750000     -30.81310000     -72.26150000
S      -47.49730000     -31.94190000     -68.71550000
S      -45.64810000     -30.08750000     -70.60270000
H      -44.73170000     -30.37850000     -72.99310000
