40
Properties=species:S:1:pos:R:3 #=T CELL(abcABC):=T 1.889726e+02=T 90.00000=T Traj:=T positionsangstrom=T Step:=T 0=T Bead:=T pbc="F F F"
C      -42.87940000     -32.50470000     -70.86390000
C      -42.84400000     -33.37950000     -71.93640000
C      -43.21900000     -34.77410000     -71.66420000
C      -43.72900000     -35.17910000     -70.36390000
C      -43.78490000     -34.24570000     -69.32630000
C      -43.28330000     -32.97560000     -69.57270000
H      -42.54910000     -31.50870000     -70.97440000
H      -43.07590000     -35.45060000     -72.41340000
H      -44.29770000     -34.55330000     -68.35750000
H      -43.47360000     -32.17570000     -68.76530000
C      -44.26140000     -36.49590000     -70.10070000
H      -44.04820000     -36.82690000     -69.07630000
H      -43.90330000     -37.19480000     -70.91400000
C      -42.22120000     -33.02820000     -73.23170000
H      -41.45440000     -32.24470000     -72.95930000
H      -41.85390000     -33.88900000     -73.69110000
S      -46.17830000     -36.64590000     -70.05910000
S      -43.33130000     -32.17260000     -74.38830000
C      -46.71830000     -36.07570000     -71.73080000
H      -45.89440000     -35.69970000     -72.32850000
H      -47.12020000     -36.93300000     -72.28850000
C      -44.77820000     -33.51270000     -74.32570000
H      -44.31730000     -34.32300000     -73.73500000
H      -44.86430000     -33.94080000     -75.37510000
C      -46.11940000     -32.94410000     -73.88670000
H      -46.51050000     -32.33550000     -74.71300000
H      -46.75800000     -33.83200000     -74.00210000
C      -47.89620000     -35.03810000     -71.62380000
H      -48.70930000     -35.49920000     -71.03230000
H      -48.23210000     -34.86130000     -72.61880000
C      -47.44220000     -33.78680000     -70.85150000
C      -47.80820000     -33.75710000     -69.53470000
C      -46.66410000     -32.67800000     -71.24810000
H      -48.31620000     -34.44280000     -68.84060000
C      -46.62440000     -31.69830000     -70.27090000
C      -46.25000000     -32.23690000     -72.53570000
C      -45.80110000     -30.97310000     -72.45350000
S      -47.25790000     -32.31640000     -68.72210000
S      -45.81590000     -30.25820000     -70.85090000
H      -45.23630000     -30.44620000     -73.19330000
