40
Properties=species:S:1:pos:R:3 #=T CELL(abcABC):=T 1.889726e+02=T 90.00000=T Traj:=T positionsangstrom=T Step:=T 0=T Bead:=T pbc="F F F"
C      -42.94370000     -30.40970000     -71.68930000
C      -44.11820000     -30.33870000     -70.92980000
C      -44.19580000     -31.06750000     -69.71030000
C      -43.13120000     -31.85250000     -69.21960000
C      -41.93250000     -31.78550000     -69.97740000
C      -41.82240000     -31.06530000     -71.13450000
H      -42.83710000     -29.93610000     -72.64280000
H      -45.12820000     -30.93760000     -69.07920000
H      -40.94840000     -32.24650000     -69.59010000
H      -40.88600000     -31.05180000     -71.80210000
C      -43.10990000     -32.43360000     -67.79610000
H      -43.93560000     -31.84610000     -67.16440000
H      -42.13140000     -32.13260000     -67.32800000
C      -45.25250000     -29.40170000     -71.44720000
H      -46.10320000     -29.63160000     -70.68840000
H      -45.05530000     -28.32760000     -71.63090000
S      -43.40710000     -34.26240000     -67.69400000
S      -45.80590000     -30.05980000     -73.03560000
C      -44.72610000     -34.66380000     -68.91410000
H      -44.84410000     -35.70200000     -68.59990000
H      -45.65440000     -34.19700000     -68.62010000
C      -46.12620000     -31.83720000     -72.92010000
H      -45.21710000     -32.49350000     -72.97970000
H      -46.52270000     -32.04060000     -73.93080000
C      -47.13020000     -32.32490000     -71.85990000
H      -46.78820000     -32.22210000     -70.84810000
H      -48.14480000     -31.85210000     -71.88140000
C      -44.54940000     -34.41800000     -70.46010000
H      -43.49120000     -34.38380000     -70.74370000
H      -44.83960000     -33.35750000     -70.59490000
C      -45.37170000     -35.31990000     -71.37300000
C      -44.94370000     -36.59940000     -71.73120000
C      -46.59870000     -34.92200000     -72.04360000
H      -44.10530000     -37.15820000     -71.40640000
C      -47.12350000     -36.02490000     -72.79200000
C      -47.47580000     -33.77740000     -72.19200000
C      -48.57830000     -33.98230000     -73.00140000
S      -46.04300000     -37.34990000     -72.85640000
S      -48.66690000     -35.66070000     -73.51340000
H      -49.43130000     -33.28920000     -73.22060000
