40
Properties=species:S:1:pos:R:3 #=T CELL(abcABC):=T 1.889726e+02=T 90.00000=T Traj:=T positionsangstrom=T Step:=T 0=T Bead:=T pbc="F F F"
C      -42.54430000     -33.17930000     -70.41270000
C      -42.87430000     -33.71580000     -71.68220000
C      -43.63990000     -34.86250000     -71.67000000
C      -44.21500000     -35.30500000     -70.51760000
C      -44.07240000     -34.62500000     -69.31070000
C      -43.28240000     -33.52820000     -69.29480000
H      -42.02620000     -32.22290000     -70.27670000
H      -43.64760000     -35.44250000     -72.59230000
H      -44.65130000     -35.04400000     -68.42510000
H      -43.21580000     -32.91710000     -68.40340000
C      -44.75290000     -36.68560000     -70.41910000
H      -44.56260000     -37.09500000     -69.38650000
H      -44.25900000     -37.29670000     -71.11280000
C      -42.19960000     -33.31730000     -72.93070000
H      -41.26520000     -32.72130000     -72.79540000
H      -42.02340000     -34.28610000     -73.54860000
S      -46.62360000     -36.81280000     -70.54550000
S      -43.39450000     -32.27440000     -73.93360000
C      -46.92490000     -35.78470000     -72.15600000
H      -45.94780000     -35.18780000     -72.40740000
H      -47.07630000     -36.39300000     -72.95890000
C      -45.04450000     -33.22660000     -74.18970000
H      -45.25740000     -33.96250000     -73.42420000
H      -45.13820000     -33.76900000     -75.11640000
C      -46.17340000     -32.13090000     -74.07220000
H      -46.07410000     -31.32630000     -74.82380000
H      -47.16850000     -32.46470000     -74.26850000
C      -47.90410000     -34.66010000     -71.97810000
H      -48.94840000     -35.10000000     -71.64840000
H      -48.07520000     -34.30010000     -72.99440000
C      -47.56460000     -33.53000000     -71.08020000
C      -47.68190000     -33.62960000     -69.73120000
C      -46.75150000     -32.35000000     -71.40110000
H      -48.36080000     -34.40520000     -69.23310000
C      -46.38200000     -31.61800000     -70.25550000
C      -46.13370000     -31.63140000     -72.64500000
C      -45.24660000     -30.66810000     -72.26590000
S      -47.01980000     -32.26260000     -68.79230000
S      -45.09210000     -30.42460000     -70.53020000
H      -44.66500000     -30.04340000     -72.96780000
