40
Properties=species:S:1:pos:R:3 #=T CELL(abcABC):=T 1.889726e+02=T 90.00000=T Traj:=T positionsangstrom=T Step:=T 0=T Bead:=T pbc="F F F"
C      -43.99320000     -29.62750000     -72.82120000
C      -45.24780000     -30.07220000     -72.40690000
C      -45.44750000     -30.40300000     -71.01130000
C      -44.37070000     -30.23430000     -70.14530000
C      -43.10460000     -29.82300000     -70.56420000
C      -42.93610000     -29.53030000     -71.91660000
H      -43.71310000     -29.39240000     -73.84890000
H      -46.45320000     -30.64460000     -70.54210000
H      -42.24940000     -29.75450000     -69.85220000
H      -41.86800000     -29.23020000     -72.19840000
C      -44.75750000     -30.41840000     -68.67080000
H      -45.85180000     -30.56560000     -68.45580000
H      -44.43860000     -29.49740000     -68.17920000
C      -46.42040000     -30.26480000     -73.41680000
H      -47.31540000     -30.44580000     -72.87010000
H      -46.55880000     -29.34050000     -74.00900000
S      -43.98070000     -31.96680000     -67.93570000
S      -46.18650000     -31.67090000     -74.51500000
C      -44.91390000     -33.34840000     -68.59240000
H      -44.81950000     -34.22530000     -68.01730000
H      -45.88300000     -32.98330000     -68.52490000
C      -45.76290000     -33.08960000     -73.44030000
H      -44.79650000     -32.79880000     -72.93900000
H      -45.58950000     -33.90480000     -74.11940000
C      -46.96530000     -33.43720000     -72.57810000
H      -46.98620000     -32.80480000     -71.69180000
H      -47.81260000     -33.40330000     -73.23090000
C      -44.49880000     -33.69760000     -70.02710000
H      -43.40240000     -33.58940000     -70.21650000
H      -44.91750000     -32.93640000     -70.72340000
C      -44.86250000     -35.09620000     -70.38870000
C      -44.12830000     -36.15350000     -69.85820000
C      -45.89330000     -35.56300000     -71.24700000
H      -43.37000000     -35.99450000     -69.11050000
C      -45.89150000     -36.96090000     -71.29430000
C      -46.81810000     -34.93060000     -72.18960000
C      -47.56770000     -35.83910000     -72.89820000
S      -44.70420000     -37.77690000     -70.35530000
S      -47.12450000     -37.49410000     -72.39570000
H      -48.31760000     -35.66290000     -73.64830000
