40
Properties=species:S:1:pos:R:3 #=T CELL(abcABC):=T 1.889726e+02=T 90.00000=T Traj:=T positionsangstrom=T Step:=T 0=T Bead:=T pbc="F F F"
C      -43.96800000     -30.10870000     -72.79140000
C      -45.33580000     -30.24800000     -72.47280000
C      -45.75470000     -30.26610000     -71.11970000
C      -44.78670000     -30.13160000     -70.11010000
C      -43.43820000     -29.83660000     -70.43220000
C      -43.01500000     -29.79370000     -71.77330000
H      -43.77150000     -30.02070000     -73.84060000
H      -46.82400000     -30.38660000     -70.92650000
H      -42.78230000     -29.64080000     -69.68130000
H      -42.06660000     -29.58150000     -72.09670000
C      -45.15640000     -30.37880000     -68.67790000
H      -46.16830000     -30.72490000     -68.70680000
H      -45.00480000     -29.50930000     -68.11460000
C      -46.36690000     -30.33930000     -73.55050000
H      -47.34360000     -30.60830000     -73.03160000
H      -46.41360000     -29.41200000     -74.19390000
S      -44.06860000     -31.70490000     -67.92830000
S      -45.88120000     -31.67060000     -74.73170000
C      -44.91450000     -33.16700000     -68.76040000
H      -44.90320000     -33.99380000     -68.10730000
H      -45.94960000     -32.93660000     -68.98180000
C      -45.59350000     -33.23580000     -73.80790000
H      -44.62750000     -33.17940000     -73.28080000
H      -45.56900000     -33.97060000     -74.56290000
C      -46.68420000     -33.55330000     -72.76810000
H      -46.37190000     -32.83270000     -72.01830000
H      -47.67770000     -33.44420000     -73.20420000
C      -44.28130000     -33.59000000     -70.13240000
H      -43.18020000     -33.48310000     -70.05670000
H      -44.53920000     -32.87050000     -70.92780000
C      -44.59410000     -35.00610000     -70.55970000
C      -44.10130000     -36.02470000     -69.75380000
C      -45.69530000     -35.52820000     -71.37580000
H      -43.51030000     -36.02690000     -68.88820000
C      -45.91420000     -36.92260000     -71.11370000
C      -46.60700000     -35.03290000     -72.35180000
C      -47.46230000     -36.01730000     -72.88130000
S      -44.83600000     -37.62370000     -69.91300000
S      -47.15570000     -37.61190000     -72.20290000
H      -48.30310000     -35.78310000     -73.58930000
