40
Properties=species:S:1:pos:R:3 #=T CELL(abcABC):=T 1.889726e+02=T 90.00000=T Traj:=T positionsangstrom=T Step:=T 0=T Bead:=T pbc="F F F"
C      -43.87220000     -29.73130000     -72.89790000
C      -45.20040000     -30.13400000     -72.62660000
C      -45.56650000     -30.30300000     -71.27990000
C      -44.65010000     -30.18740000     -70.26290000
C      -43.36850000     -29.74520000     -70.49960000
C      -42.98780000     -29.52980000     -71.79660000
H      -43.62850000     -29.44820000     -73.89670000
H      -46.53620000     -30.62520000     -71.04940000
H      -42.81530000     -29.38710000     -69.56250000
H      -42.04390000     -29.00650000     -72.06340000
C      -45.11510000     -30.26450000     -68.76560000
H      -46.23270000     -30.23120000     -68.73780000
H      -44.79220000     -29.40240000     -68.28230000
C      -46.28600000     -30.44630000     -73.66140000
H      -47.12750000     -30.84970000     -73.10060000
H      -46.42910000     -29.50960000     -74.16550000
S      -44.45980000     -31.66330000     -67.82760000
S      -45.78830000     -31.87080000     -74.76920000
C      -45.10240000     -33.21100000     -68.48350000
H      -44.80400000     -33.93160000     -67.77770000
H      -46.26200000     -33.13020000     -68.61810000
C      -45.49210000     -33.05820000     -73.40710000
H      -44.79690000     -32.56050000     -72.71700000
H      -44.93640000     -33.86240000     -73.96420000
C      -46.72360000     -33.47980000     -72.57120000
H      -46.71030000     -32.85670000     -71.63240000
H      -47.59820000     -33.32930000     -73.17790000
C      -44.49710000     -33.62510000     -69.80790000
H      -43.38710000     -33.60360000     -69.72340000
H      -44.74700000     -33.03880000     -70.69290000
C      -44.85550000     -35.11940000     -70.15820000
C      -44.17520000     -36.16520000     -69.63140000
C      -45.81070000     -35.60810000     -71.12640000
H      -43.56460000     -36.12530000     -68.71340000
C      -45.88930000     -36.99790000     -71.19170000
C      -46.70340000     -34.97980000     -72.13020000
C      -47.30310000     -35.89310000     -72.99280000
S      -44.83980000     -37.79300000     -70.16470000
S      -46.89880000     -37.61030000     -72.52520000
H      -47.99320000     -35.48760000     -73.69450000
