40
Properties=species:S:1:pos:R:3 #=T CELL(abcABC):=T 1.889726e+02=T 90.00000=T Traj:=T positionsangstrom=T Step:=T 0=T Bead:=T pbc="F F F"
C      -43.94740000     -29.77730000     -72.94800000
C      -45.31670000     -30.03870000     -72.57470000
C      -45.55020000     -30.37700000     -71.25750000
C      -44.62720000     -30.19510000     -70.23030000
C      -43.32010000     -29.68340000     -70.55870000
C      -42.96570000     -29.58210000     -71.92710000
H      -43.67340000     -29.67190000     -74.00890000
H      -46.55750000     -30.63600000     -70.91700000
H      -42.52000000     -29.52220000     -69.82050000
H      -41.89320000     -29.40620000     -72.25460000
C      -45.12750000     -30.32860000     -68.81510000
H      -46.15910000     -30.47810000     -68.67520000
H      -44.75940000     -29.45220000     -68.20640000
C      -46.26120000     -30.30060000     -73.68930000
H      -47.33710000     -30.24790000     -73.40370000
H      -46.10580000     -29.41760000     -74.38710000
S      -44.37760000     -31.74770000     -67.84500000
S      -45.92850000     -31.80000000     -74.69280000
C      -45.13270000     -33.23950000     -68.57940000
H      -45.03020000     -34.11780000     -67.93030000
H      -46.19820000     -33.05960000     -68.69970000
C      -45.40870000     -33.12450000     -73.45430000
H      -44.64140000     -32.68580000     -72.79380000
H      -45.08410000     -34.07530000     -73.93040000
C      -46.64740000     -33.56770000     -72.67220000
H      -46.72150000     -32.90020000     -71.80850000
H      -47.53130000     -33.30080000     -73.15340000
C      -44.47820000     -33.62590000     -69.92490000
H      -43.38690000     -33.52360000     -69.90730000
H      -44.84100000     -32.97930000     -70.73000000
C      -44.76360000     -35.05960000     -70.28650000
C      -44.24310000     -36.08280000     -69.58980000
C      -45.71960000     -35.58550000     -71.22990000
H      -43.45250000     -36.04040000     -68.81110000
C      -45.80020000     -36.97150000     -71.20650000
C      -46.57180000     -35.01010000     -72.29570000
C      -47.30100000     -35.98830000     -72.93390000
S      -44.74470000     -37.70830000     -70.01700000
S      -47.10900000     -37.62810000     -72.34910000
H      -47.97370000     -35.86710000     -73.79160000
