40
Properties=species:S:1:pos:R:3 #=T CELL(abcABC):=T 1.889726e+02=T 90.00000=T Traj:=T positionsangstrom=T Step:=T 0=T Bead:=T pbc="F F F"
C      -43.82290000     -29.78250000     -72.87210000
C      -45.18570000     -30.07460000     -72.62940000
C      -45.61410000     -30.20160000     -71.29220000
C      -44.68900000     -30.20350000     -70.22640000
C      -43.41240000     -29.78140000     -70.46160000
C      -42.92380000     -29.54060000     -71.78520000
H      -43.36580000     -29.87840000     -73.87250000
H      -46.69290000     -30.35600000     -71.17420000
H      -42.74290000     -29.78190000     -69.57520000
H      -41.90560000     -29.40270000     -72.05190000
C      -45.12010000     -30.30390000     -68.82110000
H      -46.24090000     -30.39190000     -68.72670000
H      -44.83340000     -29.37170000     -68.27520000
C      -46.09580000     -30.31830000     -73.74850000
H      -47.17040000     -30.39490000     -73.47430000
H      -46.12160000     -29.51960000     -74.46530000
S      -44.34210000     -31.70440000     -67.84900000
S      -45.72180000     -31.85950000     -74.65200000
C      -45.24670000     -33.12010000     -68.59160000
H      -45.34210000     -33.83730000     -67.75260000
H      -46.27950000     -32.80460000     -68.65440000
C      -45.52500000     -33.33620000     -73.46490000
H      -44.50400000     -33.46450000     -73.01150000
H      -45.53860000     -34.15240000     -74.15320000
C      -46.69110000     -33.50170000     -72.48300000
H      -46.56180000     -32.83990000     -71.59910000
H      -47.66480000     -33.20370000     -73.06770000
C      -44.53140000     -33.65910000     -69.86510000
H      -43.48070000     -33.61990000     -69.59300000
H      -44.78430000     -32.89010000     -70.62560000
C      -44.89900000     -35.09730000     -70.13690000
C      -44.47670000     -36.18180000     -69.46560000
C      -45.75740000     -35.53210000     -71.20220000
H      -43.77020000     -36.13180000     -68.67630000
C      -45.84810000     -36.92110000     -71.30230000
C      -46.61270000     -34.99980000     -72.16780000
C      -47.32850000     -35.90880000     -72.92950000
S      -44.90240000     -37.78570000     -70.15030000
S      -46.93250000     -37.55740000     -72.55410000
H      -48.04290000     -35.49110000     -73.56880000
