40
Properties=species:S:1:pos:R:3 #=T CELL(abcABC):=T 1.889726e+02=T 90.00000=T Traj:=T positionsangstrom=T Step:=T 0=T Bead:=T pbc="F F F"
C      -43.97650000     -29.86170000     -72.87710000
C      -45.25820000     -30.23700000     -72.46620000
C      -45.56240000     -30.37310000     -71.05310000
C      -44.53410000     -30.17040000     -70.12820000
C      -43.26440000     -29.76590000     -70.52830000
C      -43.00340000     -29.59200000     -71.88930000
H      -43.70760000     -29.68620000     -73.93850000
H      -46.52420000     -30.69090000     -70.70990000
H      -42.48290000     -29.52880000     -69.79140000
H      -42.07990000     -29.13790000     -72.21900000
C      -44.74980000     -30.36860000     -68.65530000
H      -45.81300000     -30.42650000     -68.52770000
H      -44.39130000     -29.48340000     -68.10230000
C      -46.37680000     -30.28980000     -73.46220000
H      -47.33200000     -30.56920000     -72.98590000
H      -46.43950000     -29.45210000     -74.17350000
S      -44.02960000     -31.81080000     -67.79330000
S      -45.98210000     -31.68620000     -74.68160000
C      -45.02470000     -33.14870000     -68.67930000
H      -45.10320000     -33.94590000     -67.88710000
H      -46.01210000     -32.75060000     -68.85700000
C      -45.72440000     -33.12590000     -73.60680000
H      -44.80560000     -32.97340000     -73.02810000
H      -45.52560000     -33.98760000     -74.24840000
C      -46.87960000     -33.47580000     -72.58900000
H      -46.76610000     -32.83580000     -71.69520000
H      -47.85330000     -33.08730000     -72.99380000
C      -44.39490000     -33.64630000     -70.03160000
H      -43.37910000     -33.74100000     -69.79060000
H      -44.59140000     -32.95680000     -70.87060000
C      -44.81170000     -35.05520000     -70.41590000
C      -44.15060000     -36.11590000     -69.83490000
C      -45.81440000     -35.55910000     -71.35720000
H      -43.27960000     -35.92530000     -69.20190000
C      -45.84620000     -36.96790000     -71.32150000
C      -46.84100000     -34.97640000     -72.20990000
C      -47.63180000     -35.96500000     -72.76250000
S      -44.69140000     -37.76070000     -70.25570000
S      -47.18730000     -37.58120000     -72.31280000
H      -48.45540000     -35.77850000     -73.41230000
