40
Properties=species:S:1:pos:R:3 #=T CELL(abcABC):=T 1.889726e+02=T 90.00000=T Traj:=T positionsangstrom=T Step:=T 0=T Bead:=T pbc="F F F"
C      -43.78520000     -29.81240000     -72.80370000
C      -45.15910000     -30.09550000     -72.55870000
C      -45.57020000     -30.28650000     -71.24230000
C      -44.67190000     -30.04050000     -70.20200000
C      -43.32230000     -29.81580000     -70.41030000
C      -42.88060000     -29.64880000     -71.76460000
H      -43.57610000     -29.63420000     -73.88490000
H      -46.65880000     -30.54740000     -71.00020000
H      -42.64810000     -29.74160000     -69.59470000
H      -41.88710000     -29.33540000     -72.11980000
C      -45.22340000     -30.22230000     -68.83330000
H      -46.26150000     -30.31760000     -68.82810000
H      -44.96240000     -29.39320000     -68.14070000
C      -46.14250000     -30.30350000     -73.73960000
H      -47.22640000     -30.31620000     -73.41070000
H      -46.08000000     -29.48770000     -74.52790000
S      -44.44080000     -31.65190000     -67.94550000
S      -45.69570000     -31.78430000     -74.79100000
C      -45.25130000     -33.17330000     -68.56530000
H      -45.21490000     -33.97510000     -67.73010000
H      -46.23150000     -33.06250000     -68.90780000
C      -45.40010000     -33.01130000     -73.50690000
H      -44.74770000     -32.49990000     -72.75760000
H      -45.01900000     -33.86040000     -74.01880000
C      -46.65010000     -33.51090000     -72.73100000
H      -46.72120000     -32.89860000     -71.90240000
H      -47.57270000     -33.41440000     -73.23630000
C      -44.43940000     -33.75010000     -69.77600000
H      -43.41490000     -33.75050000     -69.54800000
H      -44.58140000     -33.12140000     -70.65780000
C      -44.84100000     -35.19280000     -70.15480000
C      -44.41050000     -36.23670000     -69.43880000
C      -45.83090000     -35.64100000     -71.17780000
H      -43.58240000     -36.09120000     -68.77830000
C      -45.92990000     -37.07560000     -71.22950000
C      -46.52590000     -35.02110000     -72.22910000
C      -47.30440000     -35.90430000     -72.96860000
S      -44.94070000     -37.81530000     -69.97640000
S      -47.01210000     -37.56500000     -72.51700000
H      -47.85700000     -35.65090000     -73.84510000
