40
Properties=species:S:1:pos:R:3 #=T CELL(abcABC):=T 1.889726e+02=T 90.00000=T Traj:=T positionsangstrom=T Step:=T 0=T Bead:=T pbc="F F F"
C      -43.68800000     -29.69040000     -72.87400000
C      -45.06480000     -30.03860000     -72.76980000
C      -45.59170000     -30.35180000     -71.50810000
C      -44.75680000     -30.24110000     -70.32320000
C      -43.36660000     -29.97350000     -70.47190000
C      -42.85470000     -29.68720000     -71.74620000
H      -43.32700000     -29.45420000     -73.78850000
H      -46.59860000     -30.55940000     -71.33890000
H      -42.55690000     -29.95400000     -69.74590000
H      -41.80000000     -29.60510000     -71.94690000
C      -45.25410000     -30.40590000     -68.87970000
H      -46.36190000     -30.58150000     -68.87930000
H      -45.05820000     -29.52640000     -68.33790000
C      -45.99010000     -30.14070000     -73.95840000
H      -47.05090000     -30.20020000     -73.59630000
H      -45.99410000     -29.45270000     -74.81850000
S      -44.46690000     -31.75050000     -67.93130000
S      -45.64450000     -31.72860000     -74.84230000
C      -45.09350000     -33.27480000     -68.77920000
H      -45.27170000     -33.88370000     -68.00060000
H      -46.11230000     -32.94680000     -69.12410000
C      -45.31820000     -33.16190000     -73.59680000
H      -44.40620000     -32.94660000     -73.03240000
H      -45.05950000     -33.96100000     -74.27280000
C      -46.47440000     -33.47500000     -72.68700000
H      -46.49250000     -32.73260000     -71.85600000
H      -47.34210000     -33.29090000     -73.21520000
C      -44.27210000     -33.78440000     -69.93620000
H      -43.23320000     -33.68550000     -69.71760000
H      -44.49700000     -33.12880000     -70.71710000
C      -44.72070000     -35.21860000     -70.21170000
C      -44.40200000     -36.22120000     -69.35320000
C      -45.64090000     -35.61550000     -71.25980000
H      -43.77800000     -36.17440000     -68.45430000
C      -45.94330000     -36.94780000     -71.12510000
C      -46.51050000     -34.92000000     -72.21640000
C      -47.35210000     -35.86160000     -72.78540000
S      -45.27540000     -37.73600000     -69.77510000
S      -47.12930000     -37.47670000     -72.20620000
H      -48.16510000     -35.79200000     -73.45290000
