40
Properties=species:S:1:pos:R:3 #=T CELL(abcABC):=T 1.889726e+02=T 90.00000=T Traj:=T positionsangstrom=T Step:=T 0=T Bead:=T pbc="F F F"
C      -42.97320000     -30.59790000     -72.77840000
C      -44.34970000     -30.45000000     -72.69910000
C      -44.84880000     -30.31800000     -71.32360000
C      -44.03470000     -30.37730000     -70.17540000
C      -42.66180000     -30.67340000     -70.36450000
C      -42.11430000     -30.73000000     -71.66640000
H      -42.57180000     -30.68830000     -73.77380000
H      -45.89680000     -30.01860000     -71.20530000
H      -41.99510000     -30.75160000     -69.53590000
H      -41.08100000     -30.57770000     -71.85410000
C      -44.55260000     -30.11650000     -68.75070000
H      -45.43520000     -29.47900000     -68.75910000
H      -43.77010000     -29.67770000     -68.22610000
C      -45.30440000     -30.40770000     -73.85050000
H      -46.33580000     -30.35840000     -73.42000000
H      -45.35210000     -29.46650000     -74.44500000
S      -44.71040000     -31.70870000     -67.79460000
S      -45.20480000     -31.86740000     -75.03300000
C      -45.61570000     -32.79410000     -68.98220000
H      -46.23060000     -33.59070000     -68.55230000
H      -46.32610000     -32.26850000     -69.65480000
C      -45.32920000     -33.33410000     -73.86020000
H      -44.45400000     -33.28120000     -73.13150000
H      -45.28960000     -34.25000000     -74.45410000
C      -46.61230000     -33.48420000     -73.03900000
H      -46.75150000     -32.72730000     -72.36640000
H      -47.38050000     -33.34710000     -73.79150000
C      -44.71440000     -33.50070000     -70.02170000
H      -43.70340000     -33.38430000     -69.71270000
H      -44.76830000     -32.98940000     -70.94380000
C      -45.14020000     -34.90440000     -70.19790000
C      -44.96640000     -35.88470000     -69.23740000
C      -46.09930000     -35.40360000     -71.24580000
H      -44.26900000     -35.93450000     -68.42490000
C      -46.39740000     -36.73310000     -71.09700000
C      -46.79990000     -34.83100000     -72.40380000
C      -47.63000000     -35.72710000     -73.02270000
S      -45.79470000     -37.33810000     -69.60410000
S      -47.70820000     -37.29290000     -72.18130000
H      -48.42620000     -35.51090000     -73.76660000
