40
Properties=species:S:1:pos:R:3 #=T CELL(abcABC):=T 1.889726e+02=T 90.00000=T Traj:=T positionsangstrom=T Step:=T 0=T Bead:=T pbc="F F F"
C      -41.56090000     -31.73470000     -69.68290000
C      -42.36550000     -32.80250000     -69.25320000
C      -42.39610000     -33.95550000     -70.02790000
C      -41.73310000     -33.99710000     -71.30930000
C      -40.99730000     -32.86180000     -71.70940000
C      -40.96180000     -31.71720000     -70.91570000
H      -41.68370000     -30.75880000     -69.12980000
H      -43.09510000     -34.86210000     -69.81320000
H      -40.57820000     -32.80350000     -72.71440000
H      -40.48410000     -30.81700000     -71.44560000
C      -41.74350000     -35.27460000     -72.15870000
H      -41.01460000     -36.01620000     -71.79900000
H      -41.53420000     -34.88380000     -73.14920000
C      -43.04160000     -32.73010000     -67.90960000
H      -42.43810000     -33.15080000     -67.11170000
H      -43.18630000     -31.65130000     -67.64770000
S      -43.38780000     -36.10250000     -72.35080000
S      -44.69680000     -33.56800000     -67.89620000
C      -44.61440000     -34.78360000     -71.93040000
H      -44.67690000     -34.43020000     -70.88140000
H      -44.29140000     -33.92550000     -72.45950000
C      -45.85430000     -32.72720000     -69.11870000
H      -45.23490000     -32.52850000     -70.00690000
H      -46.31930000     -31.80400000     -68.75010000
C      -46.99270000     -33.63470000     -69.65220000
H      -46.64250000     -34.53570000     -69.95560000
H      -47.68170000     -33.82960000     -68.79630000
C      -45.96630000     -35.23990000     -72.43160000
H      -46.56970000     -35.84470000     -71.74750000
H      -45.66870000     -35.91940000     -73.30240000
C      -46.79510000     -34.11190000     -72.91300000
C      -47.01140000     -33.88490000     -74.26820000
C      -47.56490000     -33.13760000     -72.16980000
H      -46.46830000     -34.30610000     -75.11880000
C      -48.45120000     -32.41910000     -72.92320000
C      -47.78320000     -32.98210000     -70.73810000
C      -48.81510000     -32.06110000     -70.55140000
S      -48.30000000     -32.68740000     -74.63510000
S      -49.51270000     -31.38320000     -72.02040000
H      -49.08670000     -31.68580000     -69.56670000
