40
Properties=species:S:1:pos:R:3 #=T CELL(abcABC):=T 1.889726e+02=T 90.00000=T Traj:=T positionsangstrom=T Step:=T 0=T Bead:=T pbc="F F F"
C      -43.59100000     -30.10230000     -72.89270000
C      -44.97400000     -30.31170000     -72.71040000
C      -45.51100000     -30.35480000     -71.40860000
C      -44.67390000     -30.17410000     -70.25800000
C      -43.25180000     -29.99310000     -70.51760000
C      -42.74470000     -29.96920000     -71.79130000
H      -43.16440000     -30.13280000     -73.82420000
H      -46.58090000     -30.46660000     -71.33350000
H      -42.61400000     -30.05100000     -69.65380000
H      -41.67900000     -29.98940000     -71.89610000
C      -45.31510000     -30.20110000     -68.86940000
H      -46.43480000     -30.32440000     -68.80410000
H      -45.01260000     -29.25130000     -68.37300000
C      -45.84570000     -30.29850000     -73.95270000
H      -46.89060000     -30.18750000     -73.55140000
H      -45.71300000     -29.45330000     -74.60830000
S      -44.52820000     -31.55820000     -67.81430000
S      -45.56610000     -31.86180000     -74.93160000
C      -45.13430000     -33.15740000     -68.54470000
H      -45.05230000     -33.99920000     -67.77410000
H      -46.23800000     -33.07340000     -68.78960000
C      -45.09390000     -33.24080000     -73.68680000
H      -44.24000000     -32.85840000     -73.03640000
H      -44.80090000     -34.13790000     -74.22470000
C      -46.34290000     -33.44900000     -72.80030000
H      -46.25680000     -32.69740000     -71.99210000
H      -47.29780000     -33.17050000     -73.34810000
C      -44.43120000     -33.72890000     -69.82770000
H      -43.32790000     -33.99340000     -69.49310000
H      -44.37270000     -33.09000000     -70.79280000
C      -44.97130000     -35.14790000     -70.08490000
C      -44.48930000     -36.19820000     -69.32960000
C      -45.86230000     -35.48300000     -71.18160000
H      -43.95660000     -36.11690000     -68.36360000
C      -46.23130000     -36.87530000     -71.00380000
C      -46.48640000     -34.85700000     -72.29010000
C      -47.18130000     -35.76250000     -73.00910000
S      -45.31750000     -37.73690000     -69.82540000
S      -47.21850000     -37.40310000     -72.32310000
H      -47.78810000     -35.55700000     -73.84790000
