40
Properties=species:S:1:pos:R:3 #=T CELL(abcABC):=T 1.889726e+02=T 90.00000=T Traj:=T positionsangstrom=T Step:=T 0=T Bead:=T pbc="F F F"
C      -43.32980000     -30.25440000     -72.95970000
C      -44.74680000     -30.32150000     -72.75940000
C      -45.26170000     -30.16720000     -71.46890000
C      -44.43410000     -30.18330000     -70.33920000
C      -43.06240000     -30.11300000     -70.54770000
C      -42.52560000     -30.15800000     -71.86240000
H      -42.80870000     -30.43760000     -73.93720000
H      -46.36140000     -30.11490000     -71.39000000
H      -42.47300000     -30.24520000     -69.63910000
H      -41.41350000     -30.09020000     -71.92440000
C      -44.96600000     -30.02330000     -68.92960000
H      -46.01480000     -29.86940000     -68.89970000
H      -44.61930000     -29.13880000     -68.42910000
C      -45.69810000     -30.47260000     -73.94130000
H      -46.76330000     -30.38130000     -73.71640000
H      -45.37640000     -29.67360000     -74.63440000
S      -44.55100000     -31.49260000     -67.84510000
S      -45.32560000     -32.05820000     -74.82340000
C      -45.59640000     -32.90130000     -68.69420000
H      -45.90260000     -33.57750000     -67.85730000
H      -46.58510000     -32.41740000     -68.98430000
C      -45.32170000     -33.36240000     -73.54970000
H      -44.42790000     -33.17560000     -72.92420000
H      -45.07630000     -34.35380000     -74.03660000
C      -46.58540000     -33.43540000     -72.77160000
H      -46.47240000     -32.61080000     -72.08410000
H      -47.43460000     -33.26950000     -73.35480000
C      -44.82910000     -33.59080000     -69.83420000
H      -43.72560000     -33.51900000     -69.63700000
H      -44.88140000     -32.85090000     -70.65020000
C      -45.24750000     -35.04250000     -70.02240000
C      -44.78160000     -36.02060000     -69.21200000
C      -46.06590000     -35.51390000     -71.13280000
H      -43.92720000     -35.80840000     -68.60810000
C      -46.32390000     -36.87510000     -71.03100000
C      -46.67420000     -34.88330000     -72.24360000
C      -47.31650000     -35.83050000     -72.99080000
S      -45.31760000     -37.62480000     -69.74890000
S      -47.17340000     -37.48550000     -72.39840000
H      -47.93960000     -35.65940000     -73.93530000
