40
Properties=species:S:1:pos:R:3 #=T CELL(abcABC):=T 1.889726e+02=T 90.00000=T Traj:=T positionsangstrom=T Step:=T 0=T Bead:=T pbc="F F F"
C      -47.90350000     -35.23900000     -72.74840000
C      -46.68540000     -35.12890000     -73.43690000
C      -45.64060000     -35.95590000     -73.05460000
C      -45.76260000     -36.72960000     -71.90730000
C      -46.87940000     -36.59210000     -71.06070000
C      -47.96550000     -35.87950000     -71.51940000
H      -48.67140000     -34.60050000     -73.11710000
H      -44.68980000     -35.91650000     -73.57900000
H      -46.94920000     -37.10040000     -70.07350000
H      -48.87720000     -35.74070000     -70.92650000
C      -44.69070000     -37.65620000     -71.45870000
H      -44.22960000     -38.21020000     -72.27670000
H      -44.96630000     -38.41220000     -70.74200000
C      -46.65350000     -34.36770000     -74.73820000
H      -46.70190000     -35.06050000     -75.53410000
H      -47.53650000     -33.76560000     -74.91480000
S      -43.21720000     -36.63600000     -70.80660000
S      -45.22170000     -33.10030000     -74.88550000
C      -44.04400000     -35.34850000     -69.72850000
H      -44.99330000     -35.63850000     -69.22880000
H      -43.34340000     -35.00390000     -69.00510000
C      -45.63560000     -31.83800000     -73.54960000
H      -46.39280000     -32.18360000     -72.80510000
H      -46.00710000     -30.93490000     -74.05130000
C      -44.22150000     -31.39920000     -72.89090000
H      -43.55450000     -32.25940000     -72.76280000
H      -43.67500000     -30.74000000     -73.57800000
C      -44.24110000     -34.08990000     -70.60600000
H      -44.87770000     -34.25110000     -71.52340000
H      -43.21050000     -33.80250000     -70.95200000
C      -44.86500000     -32.98260000     -69.81570000
C      -45.40670000     -33.01890000     -68.55290000
C      -44.92210000     -31.58900000     -70.34160000
H      -45.39420000     -33.95860000     -67.85950000
C      -45.28450000     -30.64890000     -69.32660000
C      -44.44350000     -30.79200000     -71.50430000
C      -44.54940000     -29.42590000     -71.35140000
S      -45.97050000     -31.46360000     -67.86330000
S      -45.12740000     -28.91370000     -69.69690000
H      -44.44780000     -28.78130000     -72.11000000
