40
Properties=species:S:1:pos:R:3 #=T CELL(abcABC):=T 1.889726e+02=T 90.00000=T Traj:=T positionsangstrom=T Step:=T 0=T Bead:=T pbc="F F F"
C      -41.74540000     -31.94630000     -69.86680000
C      -42.37140000     -33.06460000     -69.18530000
C      -42.24510000     -34.29310000     -69.86430000
C      -42.04370000     -34.34290000     -71.24930000
C      -41.79030000     -33.19940000     -71.96500000
C      -41.50270000     -31.99460000     -71.27350000
H      -41.61300000     -31.05620000     -69.32000000
H      -42.50530000     -35.18920000     -69.33160000
H      -41.89050000     -33.17310000     -73.04680000
H      -41.19880000     -31.09060000     -71.68220000
C      -41.98390000     -35.75450000     -71.94590000
H      -41.56330000     -36.51870000     -71.27360000
H      -41.38600000     -35.72480000     -72.87490000
C      -42.84880000     -33.04770000     -67.76180000
H      -42.23720000     -33.78880000     -67.14880000
H      -42.82680000     -31.99620000     -67.36040000
S      -43.63940000     -36.58490000     -72.52560000
S      -44.56230000     -33.66300000     -67.61970000
C      -44.57650000     -35.13820000     -73.13050000
H      -44.14540000     -34.20140000     -72.73990000
H      -44.49790000     -35.02610000     -74.23630000
C      -45.50760000     -32.77430000     -69.02590000
H      -44.75530000     -32.32530000     -69.64050000
H      -45.94870000     -31.84150000     -68.77170000
C      -46.66510000     -33.60390000     -69.68100000
H      -46.36060000     -34.59580000     -70.14810000
H      -47.36890000     -33.84560000     -68.93760000
C      -46.15360000     -35.14120000     -72.80580000
H      -46.24400000     -35.36010000     -71.70920000
H      -46.66990000     -35.93770000     -73.34650000
C      -46.84190000     -33.78710000     -73.04810000
C      -47.33100000     -33.59860000     -74.32070000
C      -47.39720000     -32.82710000     -72.07970000
H      -47.16790000     -34.08010000     -75.31670000
C      -48.31500000     -31.93420000     -72.73280000
C      -47.40490000     -32.72280000     -70.66730000
C      -48.27900000     -31.67760000     -70.33560000
S      -48.43880000     -32.17090000     -74.55920000
S      -49.12180000     -30.92340000     -71.63230000
H      -48.34770000     -31.24980000     -69.30190000
