40
Properties=species:S:1:pos:R:3 #=T CELL(abcABC):=T 1.889726e+02=T 90.00000=T Traj:=T positionsangstrom=T Step:=T 0=T Bead:=T pbc="F F F"
C      -43.77290000     -29.77000000     -72.86290000
C      -45.11140000     -30.07380000     -72.67240000
C      -45.60190000     -30.16940000     -71.31990000
C      -44.70900000     -30.05330000     -70.26190000
C      -43.30760000     -29.81530000     -70.45860000
C      -42.87820000     -29.72790000     -71.76020000
H      -43.39520000     -29.71770000     -73.89110000
H      -46.66620000     -30.36860000     -71.23130000
H      -42.69540000     -29.79580000     -69.56200000
H      -41.80980000     -29.57310000     -71.92890000
C      -45.30010000     -30.29900000     -68.88000000
H      -46.37930000     -30.56060000     -68.94160000
H      -45.30030000     -29.40720000     -68.23220000
C      -46.07280000     -30.16740000     -73.84170000
H      -47.05580000     -30.14890000     -73.42350000
H      -45.89800000     -29.45250000     -74.63260000
S      -44.44640000     -31.69490000     -67.88380000
S      -45.72200000     -31.79850000     -74.78310000
C      -45.18740000     -33.22960000     -68.70780000
H      -45.05940000     -34.03280000     -67.95260000
H      -46.26780000     -33.04970000     -68.92790000
C      -45.22550000     -33.05630000     -73.51370000
H      -44.42960000     -32.71800000     -72.85750000
H      -44.73730000     -33.89920000     -74.08690000
C      -46.40290000     -33.59610000     -72.70620000
H      -46.62040000     -32.97220000     -71.72780000
H      -47.31910000     -33.42300000     -73.30000000
C      -44.38910000     -33.74370000     -69.91110000
H      -43.25890000     -33.65440000     -69.73100000
H      -44.49460000     -33.07170000     -70.79200000
C      -44.76630000     -35.17290000     -70.21100000
C      -44.38570000     -36.23120000     -69.47120000
C      -45.78390000     -35.59170000     -71.20340000
H      -43.71030000     -36.17060000     -68.68490000
C      -46.04310000     -36.97960000     -71.06090000
C      -46.39600000     -35.03970000     -72.34750000
C      -47.15210000     -35.92720000     -73.07700000
S      -45.10790000     -37.79870000     -69.87110000
S      -47.18100000     -37.53990000     -72.30820000
H      -47.59850000     -35.76070000     -74.04350000
