40
Properties=species:S:1:pos:R:3 #=T CELL(abcABC):=T 1.889726e+02=T 90.00000=T Traj:=T positionsangstrom=T Step:=T 0=T Bead:=T pbc="F F F"
C      -42.79080000     -30.79800000     -72.76730000
C      -44.11330000     -30.48970000     -72.61860000
C      -44.70180000     -30.23260000     -71.34660000
C      -43.91960000     -30.33070000     -70.21530000
C      -42.56220000     -30.81630000     -70.31980000
C      -42.05790000     -31.02920000     -71.58040000
H      -42.22880000     -30.89770000     -73.67280000
H      -45.76780000     -30.00920000     -71.35610000
H      -41.94080000     -31.01050000     -69.43640000
H      -40.97480000     -31.12530000     -71.70000000
C      -44.57580000     -30.09350000     -68.85280000
H      -45.57760000     -29.60790000     -68.97720000
H      -43.98190000     -29.47590000     -68.11680000
C      -44.97740000     -30.38700000     -73.86990000
H      -45.99910000     -30.02650000     -73.63170000
H      -44.63290000     -29.54650000     -74.50210000
S      -44.70340000     -31.67760000     -67.86890000
S      -44.98540000     -31.99460000     -74.84250000
C      -45.47010000     -32.77250000     -69.10430000
H      -46.39940000     -33.35400000     -68.67370000
H      -45.90490000     -32.09450000     -69.81890000
C      -45.31860000     -33.35810000     -73.65730000
H      -44.45060000     -33.59600000     -72.96460000
H      -45.56340000     -34.20230000     -74.31830000
C      -46.51630000     -33.07040000     -72.62900000
H      -46.17280000     -32.37740000     -71.87400000
H      -47.41120000     -32.65370000     -73.02010000
C      -44.60050000     -33.72730000     -69.83930000
H      -43.69620000     -33.94550000     -69.27320000
H      -44.20850000     -33.52340000     -70.80470000
C      -45.37950000     -35.04260000     -70.08820000
C      -45.16030000     -36.20990000     -69.33890000
C      -46.29380000     -35.31940000     -71.14680000
H      -44.49880000     -36.38030000     -68.49140000
C      -46.71770000     -36.66880000     -71.18830000
C      -46.93060000     -34.54160000     -72.15290000
C      -47.79880000     -35.24240000     -72.93840000
S      -45.95360000     -37.64060000     -69.92050000
S      -47.93830000     -36.93800000     -72.43920000
H      -48.54320000     -34.73060000     -73.47150000
