40
Properties=species:S:1:pos:R:3 #=T CELL(abcABC):=T 1.889726e+02=T 90.00000=T Traj:=T positionsangstrom=T Step:=T 0=T Bead:=T pbc="F F F"
C      -45.01760000     -36.20350000     -69.11420000
C      -43.89460000     -35.37130000     -68.96410000
C      -42.93900000     -35.28830000     -69.95750000
C      -42.98020000     -36.10640000     -71.07910000
C      -43.92020000     -37.13330000     -71.19940000
C      -44.91450000     -37.14960000     -70.17820000
H      -45.75750000     -36.30750000     -68.36310000
H      -42.13780000     -34.59190000     -69.90270000
H      -44.17900000     -37.78410000     -72.04050000
H      -45.70260000     -37.81510000     -70.30990000
C      -41.98270000     -35.92180000     -72.18480000
H      -41.34070000     -36.73100000     -72.43510000
H      -41.30560000     -35.11740000     -72.09400000
C      -43.69100000     -34.48070000     -67.73440000
H      -44.56160000     -34.63810000     -67.05970000
H      -42.80530000     -34.67080000     -67.22950000
S      -43.02400000     -35.45620000     -73.79700000
S      -43.63410000     -32.62520000     -67.98220000
C      -43.81440000     -33.90780000     -73.21570000
H      -43.44950000     -33.76220000     -72.15520000
H      -43.50930000     -33.06660000     -73.92900000
C      -45.38230000     -32.27130000     -68.49100000
H      -45.66040000     -31.26230000     -68.23770000
H      -46.03820000     -32.75710000     -67.78920000
C      -45.64490000     -32.59940000     -69.94960000
H      -44.74180000     -32.65110000     -70.61140000
H      -46.02860000     -33.65510000     -70.08090000
C      -45.40530000     -33.96510000     -73.11540000
H      -45.68410000     -34.53360000     -72.13660000
H      -45.68120000     -34.63570000     -73.91780000
C      -46.28080000     -32.76640000     -73.14130000
C      -46.82940000     -32.46760000     -74.35560000
C      -46.82100000     -31.91040000     -72.07190000
H      -46.55190000     -32.77000000     -75.35650000
C      -47.74130000     -31.04140000     -72.58280000
C      -46.63410000     -31.75520000     -70.68990000
C      -47.48150000     -30.79660000     -70.16720000
S      -48.07580000     -31.09540000     -74.28080000
S      -48.45520000     -29.99350000     -71.41220000
H      -47.52470000     -30.37990000     -69.15080000
