40
Properties=species:S:1:pos:R:3 #=T CELL(abcABC):=T 1.889726e+02=T 90.00000=T Traj:=T positionsangstrom=T Step:=T 0=T Bead:=T pbc="F F F"
C      -42.13870000     -30.26720000     -72.27520000
C      -43.51370000     -30.44290000     -72.30460000
C      -44.17270000     -30.55800000     -71.03960000
C      -43.49750000     -30.56120000     -69.80000000
C      -42.07820000     -30.28220000     -69.85910000
C      -41.41810000     -30.21550000     -71.07850000
H      -41.58100000     -30.20230000     -73.20930000
H      -45.31750000     -30.62600000     -71.05850000
H      -41.47450000     -30.22240000     -68.95920000
H      -40.39550000     -29.84270000     -71.20430000
C      -44.21040000     -30.53490000     -68.51140000
H      -45.13950000     -29.91990000     -68.48920000
H      -43.55080000     -29.98170000     -67.81010000
C      -44.35870000     -30.57420000     -73.52320000
H      -45.39270000     -30.60700000     -73.30690000
H      -44.09510000     -29.67710000     -74.12040000
S      -44.65090000     -32.17570000     -67.72410000
S      -43.95260000     -31.98970000     -74.52030000
C      -45.66690000     -33.16470000     -68.93010000
H      -46.48300000     -33.63580000     -68.34350000
H      -46.12870000     -32.49930000     -69.66590000
C      -45.17410000     -33.30300000     -73.93850000
H      -44.52010000     -34.12480000     -73.79330000
H      -45.71620000     -33.52080000     -74.79170000
C      -46.14120000     -33.07120000     -72.79770000
H      -45.69250000     -32.82700000     -71.81620000
H      -46.75990000     -32.20400000     -73.05240000
C      -44.89930000     -34.29230000     -69.76960000
H      -44.29050000     -34.79130000     -69.03940000
H      -44.19970000     -33.80460000     -70.52960000
C      -45.85170000     -35.36200000     -70.30260000
C      -45.96050000     -36.57990000     -69.58680000
C      -46.66380000     -35.26660000     -71.44870000
H      -45.39570000     -36.80480000     -68.72950000
C      -47.52670000     -36.38320000     -71.52210000
C      -46.96930000     -34.35060000     -72.56030000
C      -47.85650000     -34.89330000     -73.47820000
S      -47.14430000     -37.60980000     -70.34160000
S      -48.61090000     -36.45350000     -72.89150000
H      -48.36710000     -34.29620000     -74.31050000
