40
Properties=species:S:1:pos:R:3 #=T CELL(abcABC):=T 1.889726e+02=T 90.00000=T Traj:=T positionsangstrom=T Step:=T 0=T Bead:=T pbc="F F F"
C      -42.07290000     -30.33140000     -72.32480000
C      -43.49410000     -30.53590000     -72.32560000
C      -44.19840000     -30.57540000     -71.12350000
C      -43.49880000     -30.49730000     -69.88250000
C      -42.14400000     -30.41810000     -69.92970000
C      -41.43690000     -30.35980000     -71.12840000
H      -41.57910000     -30.21300000     -73.25630000
H      -45.24430000     -30.59260000     -71.18630000
H      -41.64450000     -30.32180000     -68.97900000
H      -40.37720000     -30.47570000     -71.04100000
C      -44.31910000     -30.57520000     -68.57220000
H      -45.34300000     -30.28700000     -68.74460000
H      -43.77090000     -30.01470000     -67.83320000
C      -44.22240000     -30.48140000     -73.58760000
H      -45.35750000     -30.31550000     -73.52820000
H      -43.82510000     -29.84640000     -74.35900000
S      -44.52570000     -32.22830000     -67.85700000
S      -44.17220000     -32.19680000     -74.47530000
C      -45.71880000     -33.00390000     -69.03010000
H      -46.64080000     -33.28980000     -68.47450000
H      -45.92900000     -32.26590000     -69.76670000
C      -45.20120000     -33.47260000     -73.72100000
H      -44.55010000     -34.18060000     -73.16660000
H      -45.66570000     -34.07160000     -74.60610000
C      -46.25790000     -32.95730000     -72.75490000
H      -45.73980000     -32.45030000     -71.95850000
H      -46.88790000     -32.21750000     -73.27080000
C      -44.98140000     -34.17530000     -69.74720000
H      -44.13840000     -34.64890000     -69.20370000
H      -44.46040000     -33.69750000     -70.53720000
C      -45.88830000     -35.27760000     -70.20990000
C      -45.94370000     -36.50340000     -69.51600000
C      -46.73320000     -35.21490000     -71.35690000
H      -45.44100000     -36.75110000     -68.55360000
C      -47.47230000     -36.37600000     -71.51880000
C      -47.04220000     -34.17980000     -72.36260000
C      -47.99490000     -34.67970000     -73.23030000
S      -47.04720000     -37.58070000     -70.31690000
S      -48.40280000     -36.39980000     -72.97130000
H      -48.38470000     -34.13080000     -74.03500000
