40
Properties=species:S:1:pos:R:3 #=T CELL(abcABC):=T 1.889726e+02=T 90.00000=T Traj:=T positionsangstrom=T Step:=T 0=T Bead:=T pbc="F F F"
C      -41.96830000     -30.64840000     -72.44180000
C      -43.39210000     -30.57770000     -72.43460000
C      -44.12550000     -30.45310000     -71.27800000
C      -43.52480000     -30.69190000     -70.05160000
C      -42.21460000     -31.03640000     -70.00630000
C      -41.45260000     -30.93560000     -71.20660000
H      -41.39490000     -30.61250000     -73.31560000
H      -45.29750000     -30.37140000     -71.32760000
H      -41.78220000     -31.34180000     -69.05830000
H      -40.40320000     -31.11000000     -71.10440000
C      -44.27380000     -30.59700000     -68.70060000
H      -45.27340000     -30.20800000     -68.81140000
H      -43.73620000     -29.93850000     -67.97790000
C      -44.04630000     -30.35510000     -73.72250000
H      -45.10270000     -30.05320000     -73.63570000
H      -43.59270000     -29.73630000     -74.61940000
S      -44.39690000     -32.20940000     -67.82300000
S      -44.17880000     -32.01190000     -74.63030000
C      -45.53710000     -33.15610000     -68.94340000
H      -46.08360000     -33.70250000     -68.15480000
H      -46.23030000     -32.46670000     -69.42380000
C      -44.65210000     -33.42460000     -73.49710000
H      -43.78740000     -33.55720000     -72.84490000
H      -44.73430000     -34.26190000     -74.16920000
C      -46.07940000     -33.12400000     -72.94710000
H      -46.17380000     -32.35390000     -72.21310000
H      -46.69780000     -32.74180000     -73.74280000
C      -44.90360000     -34.09920000     -70.00440000
H      -43.96970000     -34.47310000     -69.57320000
H      -44.66440000     -33.50030000     -70.92160000
C      -45.87350000     -35.18660000     -70.24110000
C      -46.11270000     -36.22230000     -69.36670000
C      -46.70190000     -35.25450000     -71.42110000
H      -45.65690000     -36.37460000     -68.42080000
C      -47.59830000     -36.35610000     -71.44100000
C      -46.88680000     -34.33870000     -72.50160000
C      -47.93270000     -34.78910000     -73.24300000
S      -47.44210000     -37.25550000     -69.94170000
S      -48.69910000     -36.27800000     -72.77540000
H      -48.31100000     -34.23340000     -74.07750000
