40
Properties=species:S:1:pos:R:3 #=T CELL(abcABC):=T 1.889726e+02=T 90.00000=T Traj:=T positionsangstrom=T Step:=T 0=T Bead:=T pbc="F F F"
C      -45.29760000     -36.09950000     -67.84610000
C      -44.34980000     -35.19490000     -68.41200000
C      -43.90660000     -35.40600000     -69.72080000
C      -44.29520000     -36.54120000     -70.43090000
C      -45.17130000     -37.48460000     -69.83150000
C      -45.73430000     -37.25500000     -68.51420000
H      -45.64410000     -35.96260000     -66.77850000
H      -43.13980000     -34.68620000     -69.99790000
H      -45.56110000     -38.23100000     -70.47980000
H      -46.34720000     -38.06750000     -68.06530000
C      -43.68740000     -36.92420000     -71.81100000
H      -43.64960000     -37.96760000     -72.06870000
H      -42.68620000     -36.54200000     -71.94150000
C      -43.87290000     -34.04690000     -67.65360000
H      -43.62480000     -34.21000000     -66.65540000
H      -42.92780000     -33.64940000     -68.13260000
S      -44.56650000     -36.20700000     -73.30110000
S      -45.10080000     -32.61230000     -67.54840000
C      -46.17550000     -35.53260000     -72.74140000
H      -46.82340000     -35.49530000     -73.64300000
H      -46.75360000     -36.07700000     -72.06800000
C      -44.84150000     -32.07350000     -69.25590000
H      -44.63740000     -32.88170000     -69.95970000
H      -44.02350000     -31.31280000     -69.34310000
C      -46.14870000     -31.52630000     -69.85150000
H      -46.86310000     -32.35730000     -69.81090000
H      -46.57210000     -30.77330000     -69.07950000
C      -45.87720000     -34.16490000     -72.07810000
H      -44.94900000     -34.06700000     -71.43210000
H      -46.73730000     -34.02600000     -71.32260000
C      -45.78640000     -32.99870000     -72.96750000
C      -45.65070000     -33.01970000     -74.33100000
C      -45.94880000     -31.56520000     -72.49180000
H      -45.82410000     -33.80540000     -75.03900000
C      -45.90110000     -30.67110000     -73.55580000
C      -45.99180000     -30.80370000     -71.24910000
C      -46.13260000     -29.42880000     -71.44700000
S      -45.72730000     -31.45250000     -75.15130000
S      -46.19090000     -28.99500000     -73.16860000
H      -46.45920000     -28.70300000     -70.68700000
