40
Properties=species:S:1:pos:R:3 #=T CELL(abcABC):=T 1.889726e+02=T 90.00000=T Traj:=T positionsangstrom=T Step:=T 0=T Bead:=T pbc="F F F"
C      -41.67530000     -32.59770000     -72.62560000
C      -42.69540000     -31.58420000     -72.84750000
C      -43.03790000     -30.78440000     -71.76300000
C      -42.65230000     -31.05070000     -70.40460000
C      -41.67890000     -32.00680000     -70.23430000
C      -41.16460000     -32.81950000     -71.32290000
H      -41.24580000     -33.31660000     -73.33780000
H      -43.73750000     -29.93700000     -71.81130000
H      -41.45430000     -32.23680000     -69.15640000
H      -40.47500000     -33.63600000     -71.20990000
C      -43.27680000     -30.24540000     -69.28230000
H      -43.76490000     -29.37110000     -69.76070000
H      -42.45090000     -29.98850000     -68.59350000
C      -43.30620000     -31.26850000     -74.18110000
H      -43.94880000     -30.39370000     -74.10660000
H      -42.47160000     -31.16070000     -74.92520000
S      -44.38040000     -31.32200000     -68.25370000
S      -44.40070000     -32.64210000     -74.94600000
C      -45.42140000     -32.09730000     -69.60130000
H      -46.48960000     -32.19180000     -69.16090000
H      -45.52250000     -31.47520000     -70.55990000
C      -45.27920000     -33.59910000     -73.63890000
H      -44.51090000     -33.92270000     -72.94740000
H      -45.62470000     -34.52130000     -74.19960000
C      -46.48120000     -32.97200000     -72.97850000
H      -46.14880000     -32.17690000     -72.30020000
H      -47.06890000     -32.48280000     -73.76510000
C      -44.98490000     -33.63480000     -70.02530000
H      -44.15690000     -33.93480000     -69.43990000
H      -44.66710000     -33.69600000     -71.07250000
C      -46.09120000     -34.64640000     -69.94730000
C      -46.26920000     -35.58820000     -68.94670000
C      -47.12080000     -34.75640000     -71.04440000
H      -45.50370000     -35.93170000     -68.33800000
C      -47.97500000     -35.85350000     -70.80560000
C      -47.35090000     -34.09610000     -72.32760000
C      -48.45050000     -34.63530000     -72.94730000
S      -47.68600000     -36.61580000     -69.26910000
S      -49.28620000     -35.94070000     -71.98750000
H      -48.85470000     -34.29510000     -73.84370000
