40
Properties=species:S:1:pos:R:3 #=T CELL(abcABC):=T 1.889726e+02=T 90.00000=T Traj:=T positionsangstrom=T Step:=T 0=T Bead:=T pbc="F F F"
C      -45.00510000     -35.72390000     -67.88140000
C      -44.15030000     -34.83030000     -68.45700000
C      -43.71630000     -35.18080000     -69.75460000
C      -44.21210000     -36.32440000     -70.41320000
C      -45.20950000     -37.16780000     -69.84960000
C      -45.56930000     -36.90150000     -68.52860000
H      -45.30280000     -35.52890000     -66.80300000
H      -43.10400000     -34.53120000     -70.35710000
H      -45.54490000     -38.07000000     -70.38500000
H      -46.29190000     -37.33200000     -67.94300000
C      -43.64270000     -36.68660000     -71.76950000
H      -43.52840000     -37.80340000     -71.80050000
H      -42.66570000     -36.09790000     -71.97320000
C      -43.64890000     -33.66570000     -67.73040000
H      -43.38230000     -33.78550000     -66.76030000
H      -42.77740000     -33.15270000     -68.20960000
S      -44.73570000     -36.00430000     -73.11270000
S      -45.02230000     -32.30640000     -67.57940000
C      -46.45930000     -35.65190000     -72.35580000
H      -47.24330000     -35.80330000     -73.13780000
H      -46.72150000     -36.42130000     -71.62230000
C      -44.96890000     -31.77730000     -69.36030000
H      -44.85170000     -32.73010000     -69.88970000
H      -44.11820000     -31.12100000     -69.54950000
C      -46.34360000     -31.30580000     -69.83930000
H      -47.18550000     -31.94460000     -69.73020000
H      -46.63800000     -30.39980000     -69.35070000
C      -46.58490000     -34.25360000     -71.82780000
H      -45.93350000     -34.12920000     -70.97240000
H      -47.60230000     -34.09620000     -71.39080000
C      -46.32680000     -33.19670000     -72.83910000
C      -46.03150000     -33.50100000     -74.16360000
C      -46.16590000     -31.78980000     -72.52060000
H      -46.36280000     -34.37620000     -74.65600000
C      -45.71880000     -31.11300000     -73.64630000
C      -46.15430000     -30.97370000     -71.31740000
C      -46.00310000     -29.62700000     -71.73150000
S      -45.63150000     -32.10900000     -75.13630000
S      -45.70270000     -29.33260000     -73.44570000
H      -46.05190000     -28.75350000     -71.06780000
