40
Properties=species:S:1:pos:R:3 #=T CELL(abcABC):=T 1.889726e+02=T 90.00000=T Traj:=T positionsangstrom=T Step:=T 0=T Bead:=T pbc="F F F"
C      -45.09080000     -35.99830000     -67.78920000
C      -44.18630000     -35.14770000     -68.43660000
C      -43.80730000     -35.39230000     -69.73210000
C      -44.23470000     -36.55100000     -70.40920000
C      -45.17830000     -37.38740000     -69.79850000
C      -45.61820000     -37.11080000     -68.49280000
H      -45.37560000     -35.75380000     -66.79210000
H      -43.14610000     -34.74370000     -70.28330000
H      -45.50290000     -38.24280000     -70.38920000
H      -46.35310000     -37.64180000     -67.80680000
C      -43.71950000     -36.78940000     -71.81900000
H      -43.35180000     -37.87440000     -71.87550000
H      -42.79480000     -36.21330000     -71.93210000
C      -43.70430000     -33.97340000     -67.67800000
H      -43.62520000     -34.31750000     -66.61150000
H      -42.78970000     -33.60150000     -68.07100000
S      -44.69940000     -36.24650000     -73.28400000
S      -44.99350000     -32.59240000     -67.57350000
C      -46.31730000     -35.62060000     -72.62340000
H      -47.10040000     -35.60690000     -73.40090000
H      -46.60700000     -36.21340000     -71.68880000
C      -44.96800000     -31.89370000     -69.31760000
H      -44.47350000     -32.73120000     -69.88030000
H      -44.25100000     -31.09050000     -69.20290000
C      -46.31400000     -31.56900000     -69.82070000
H      -46.88290000     -32.41790000     -69.76950000
H      -46.88800000     -30.86790000     -69.17890000
C      -46.20450000     -34.18060000     -72.06510000
H      -45.45490000     -34.21240000     -71.31240000
H      -47.10780000     -34.00460000     -71.54250000
C      -45.95750000     -33.01220000     -72.97620000
C      -45.81110000     -33.09350000     -74.34870000
C      -45.92100000     -31.59310000     -72.55990000
H      -45.54290000     -34.02350000     -74.83730000
C      -45.85360000     -30.72160000     -73.62850000
C      -46.22730000     -30.90650000     -71.29250000
C      -46.22980000     -29.49690000     -71.43070000
S      -45.67320000     -31.50520000     -75.19340000
S      -45.99190000     -29.04850000     -73.14800000
H      -46.37000000     -28.81540000     -70.64430000
