40
Properties=species:S:1:pos:R:3 #=T CELL(abcABC):=T 1.889726e+02=T 90.00000=T Traj:=T positionsangstrom=T Step:=T 0=T Bead:=T pbc="F F F"
C      -41.92340000     -31.92540000     -72.64700000
C      -43.15040000     -31.26690000     -72.78890000
C      -43.77780000     -30.76220000     -71.59350000
C      -43.17060000     -30.93080000     -70.33740000
C      -41.95480000     -31.64530000     -70.22420000
C      -41.35740000     -32.13900000     -71.39420000
H      -41.55710000     -32.35190000     -73.56680000
H      -44.72780000     -30.25060000     -71.54350000
H      -41.39350000     -31.66540000     -69.20010000
H      -40.35330000     -32.55210000     -71.41890000
C      -43.76940000     -30.32780000     -69.12750000
H      -44.75460000     -29.87100000     -69.47640000
H      -43.11420000     -29.48800000     -68.74470000
C      -43.79740000     -30.90420000     -74.11840000
H      -44.64650000     -30.22990000     -73.83070000
H      -43.16460000     -30.42650000     -74.83070000
S      -44.32070000     -31.60140000     -67.92330000
S      -44.34270000     -32.41140000     -74.98010000
C      -45.57720000     -32.57970000     -68.83080000
H      -46.19500000     -33.01180000     -68.04290000
H      -46.25070000     -31.89510000     -69.42510000
C      -45.14220000     -33.39080000     -73.58160000
H      -44.41380000     -33.32390000     -72.76730000
H      -45.21260000     -34.43990000     -73.81140000
C      -46.47560000     -32.86810000     -72.91550000
H      -46.17030000     -32.15920000     -72.15250000
H      -47.08380000     -32.27100000     -73.71060000
C      -44.94590000     -33.68350000     -69.79810000
H      -43.99400000     -34.03750000     -69.21880000
H      -44.57900000     -33.31070000     -70.74300000
C      -45.96980000     -34.78730000     -69.97920000
C      -46.08720000     -35.84350000     -69.13820000
C      -46.88190000     -34.88560000     -71.16010000
H      -45.53290000     -35.90940000     -68.24530000
C      -47.73590000     -35.95700000     -70.97730000
C      -47.20930000     -34.10860000     -72.34360000
C      -48.20950000     -34.65880000     -73.09520000
S      -47.31120000     -37.00100000     -69.64680000
S      -48.82640000     -36.19800000     -72.35610000
H      -48.74830000     -34.22400000     -73.89210000
