40
Properties=species:S:1:pos:R:3 #=T CELL(abcABC):=T 1.889726e+02=T 90.00000=T Traj:=T positionsangstrom=T Step:=T 0=T Bead:=T pbc="F F F"
C      -41.97050000     -30.81150000     -72.49350000
C      -43.37550000     -30.67580000     -72.56270000
C      -44.18940000     -30.59760000     -71.32640000
C      -43.60380000     -30.82160000     -70.10550000
C      -42.18860000     -30.99290000     -70.04610000
C      -41.34650000     -30.97940000     -71.20350000
H      -41.34600000     -30.63750000     -73.35280000
H      -45.25710000     -30.33200000     -71.42840000
H      -41.71190000     -31.13560000     -69.08410000
H      -40.29060000     -31.13620000     -71.17420000
C      -44.39660000     -30.67040000     -68.83510000
H      -45.44120000     -30.33460000     -69.09960000
H      -44.03920000     -29.83220000     -68.25040000
C      -44.06560000     -30.39380000     -73.86590000
H      -45.04550000     -29.90400000     -73.75800000
H      -43.49180000     -29.58370000     -74.36540000
S      -44.40930000     -32.22620000     -67.80730000
S      -44.18640000     -31.91250000     -74.88740000
C      -45.49950000     -33.23810000     -68.79250000
H      -46.22060000     -33.79890000     -68.16870000
H      -46.19160000     -32.70210000     -69.43580000
C      -44.77000000     -33.24900000     -73.62840000
H      -43.94280000     -33.42150000     -72.91140000
H      -44.80990000     -34.25560000     -74.14710000
C      -46.12820000     -33.04890000     -72.86940000
H      -45.98020000     -32.41800000     -71.95040000
H      -46.73650000     -32.46730000     -73.62990000
C      -44.73950000     -34.26170000     -69.67180000
H      -43.93880000     -34.85280000     -69.11190000
H      -44.14170000     -33.84390000     -70.41500000
C      -45.78970000     -35.25120000     -70.18580000
C      -46.13920000     -36.29070000     -69.33690000
C      -46.59210000     -35.19230000     -71.37630000
H      -45.64660000     -36.58480000     -68.43450000
C      -47.59780000     -36.16980000     -71.30430000
C      -46.85690000     -34.33830000     -72.51900000
C      -47.82060000     -34.82040000     -73.36090000
S      -47.50370000     -37.17890000     -69.90430000
S      -48.70820000     -36.20930000     -72.56910000
H      -48.23110000     -34.40850000     -74.32950000
