40
Properties=species:S:1:pos:R:3 #=T CELL(abcABC):=T 1.889726e+02=T 90.00000=T Traj:=T positionsangstrom=T Step:=T 0=T Bead:=T pbc="F F F"
C      -44.65740000     -36.44170000     -68.92990000
C      -43.66130000     -35.42930000     -68.98150000
C      -42.85780000     -35.27190000     -70.17100000
C      -43.14290000     -36.02120000     -71.30420000
C      -44.16470000     -36.98610000     -71.24280000
C      -44.87200000     -37.17520000     -70.08820000
H      -45.08130000     -36.58210000     -67.93940000
H      -42.03170000     -34.55190000     -70.23160000
H      -44.45270000     -37.55520000     -72.22060000
H      -45.72030000     -37.89810000     -70.10640000
C      -42.30350000     -35.73950000     -72.49100000
H      -41.89400000     -36.73330000     -72.76590000
H      -41.42290000     -35.11760000     -72.18830000
C      -43.56240000     -34.61460000     -67.71830000
H      -44.27120000     -34.92740000     -67.03910000
H      -42.64600000     -34.91470000     -67.24540000
S      -42.95410000     -34.93410000     -74.05230000
S      -43.59300000     -32.70880000     -67.88970000
C      -44.10090000     -33.66550000     -73.32330000
H      -43.68840000     -33.25410000     -72.44550000
H      -44.13220000     -32.89400000     -74.10660000
C      -45.25710000     -32.19360000     -68.49560000
H      -45.25130000     -31.08390000     -68.53360000
H      -46.04830000     -32.53490000     -67.75370000
C      -45.62030000     -32.74600000     -69.91430000
H      -44.69280000     -32.73920000     -70.53270000
H      -45.88500000     -33.81570000     -69.83380000
C      -45.61110000     -34.12900000     -73.07460000
H      -45.65970000     -34.71040000     -72.17750000
H      -45.86470000     -34.81870000     -73.95440000
C      -46.52700000     -32.95970000     -73.12770000
C      -47.14900000     -32.66500000     -74.29610000
C      -46.78750000     -31.99740000     -72.06240000
H      -47.14970000     -33.29040000     -75.22390000
C      -47.65930000     -31.01810000     -72.52360000
C      -46.68620000     -31.96250000     -70.62420000
C      -47.42150000     -30.95320000     -70.02450000
S      -48.06730000     -31.13560000     -74.23970000
S      -48.29990000     -30.05100000     -71.19840000
H      -47.55870000     -30.61700000     -69.03450000
