40
Properties=species:S:1:pos:R:3 #=T CELL(abcABC):=T 1.889726e+02=T 90.00000=T Traj:=T positionsangstrom=T Step:=T 0=T Bead:=T pbc="F F F"
C      -44.34310000     -32.54220000     -73.48340000
C      -45.55130000     -33.21250000     -73.84380000
C      -46.74970000     -32.76740000     -73.37200000
C      -46.84440000     -31.72500000     -72.44820000
C      -45.72440000     -30.95320000     -72.15150000
C      -44.51950000     -31.43930000     -72.62890000
H      -43.30230000     -32.88680000     -73.72660000
H      -47.56450000     -33.49130000     -73.50330000
H      -45.76480000     -30.10610000     -71.51940000
H      -43.63560000     -30.85550000     -72.42230000
C      -48.21590000     -31.33990000     -71.83710000
H      -48.98700000     -32.07200000     -72.10670000
H      -48.65270000     -30.47190000     -72.27750000
C      -45.51890000     -34.35730000     -74.76130000
H      -46.51470000     -34.64520000     -75.16210000
H      -44.78980000     -34.30600000     -75.62220000
S      -48.28620000     -30.88870000     -69.95450000
S      -44.90470000     -35.98990000     -73.89470000
C      -48.17040000     -32.50310000     -69.05810000
H      -47.82140000     -32.25660000     -68.01740000
H      -49.16440000     -32.88350000     -68.99900000
C      -46.13300000     -36.21990000     -72.47310000
H      -46.82720000     -37.05630000     -72.70380000
H      -46.73160000     -35.23800000     -72.40160000
C      -45.39220000     -36.49590000     -71.13940000
H      -46.11860000     -36.70240000     -70.33820000
H      -44.91180000     -37.46630000     -71.38710000
C      -47.21640000     -33.63640000     -69.49360000
H      -47.47670000     -34.18220000     -70.39200000
H      -47.28000000     -34.34600000     -68.67150000
C      -45.68920000     -33.24920000     -69.58310000
C      -45.18430000     -32.00150000     -69.09900000
C      -44.63300000     -34.11950000     -70.12050000
H      -45.73840000     -31.11120000     -68.75240000
C      -43.40800000     -33.51100000     -69.91800000
C      -44.44200000     -35.46480000     -70.70580000
C      -43.14010000     -35.68100000     -71.04860000
S      -43.41770000     -31.94860000     -69.19840000
S      -42.03450000     -34.38610000     -70.53550000
H      -42.78700000     -36.60350000     -71.59570000
