40
Properties=species:S:1:pos:R:3 #=T CELL(abcABC):=T 1.889726e+02=T 90.00000=T Traj:=T positionsangstrom=T Step:=T 0=T Bead:=T pbc="F F F"
C      -41.91080000     -32.49070000     -73.00060000
C      -43.09930000     -31.75830000     -73.02290000
C      -43.50610000     -31.13410000     -71.88720000
C      -42.83640000     -31.31820000     -70.66340000
C      -41.74790000     -32.24290000     -70.59650000
C      -41.27670000     -32.76650000     -71.77030000
H      -41.53380000     -32.86820000     -73.93500000
H      -44.49940000     -30.57790000     -71.91650000
H      -41.13610000     -32.34350000     -69.76330000
H      -40.36340000     -33.36420000     -71.74720000
C      -43.14280000     -30.51990000     -69.45750000
H      -43.59020000     -29.51660000     -69.59620000
H      -42.14980000     -30.52450000     -69.01630000
C      -43.87130000     -31.54300000     -74.31210000
H      -44.70590000     -30.89660000     -74.13580000
H      -43.22620000     -31.15400000     -75.13740000
S      -44.28960000     -31.22380000     -68.18690000
S      -44.42840000     -33.14360000     -75.06810000
C      -45.57060000     -32.08520000     -69.18650000
H      -46.46780000     -32.24380000     -68.57880000
H      -45.81640000     -31.45110000     -70.05820000
C      -45.09660000     -33.95620000     -73.54960000
H      -44.20010000     -34.31850000     -73.02080000
H      -45.62170000     -34.88650000     -73.84240000
C      -46.03690000     -33.00130000     -72.71760000
H      -45.43440000     -32.36390000     -72.11600000
H      -46.59030000     -32.37220000     -73.40600000
C      -45.00160000     -33.46610000     -69.56150000
H      -44.30840000     -33.68700000     -68.69770000
H      -44.42810000     -33.44100000     -70.45430000
C      -46.08920000     -34.50480000     -69.68850000
C      -46.50880000     -35.37600000     -68.70550000
C      -46.92930000     -34.53380000     -70.81720000
H      -46.03470000     -35.60900000     -67.75090000
C      -47.87910000     -35.50420000     -70.73190000
C      -47.09460000     -33.84990000     -72.08070000
C      -48.12460000     -34.27310000     -72.85950000
S      -47.76580000     -36.41360000     -69.18660000
S      -48.95310000     -35.68370000     -72.18160000
H      -48.39540000     -33.78490000     -73.79900000
