40
Properties=species:S:1:pos:R:3 #=T CELL(abcABC):=T 1.889726e+02=T 90.00000=T Traj:=T positionsangstrom=T Step:=T 0=T Bead:=T pbc="F F F"
C      -41.95420000     -32.71450000     -72.90300000
C      -42.94640000     -31.74570000     -73.14750000
C      -43.39290000     -31.02920000     -71.99180000
C      -42.67470000     -31.12540000     -70.78290000
C      -41.66650000     -32.06490000     -70.66620000
C      -41.33450000     -32.95370000     -71.70670000
H      -41.76920000     -33.45510000     -73.68460000
H      -44.21290000     -30.29360000     -72.12720000
H      -41.24360000     -32.21290000     -69.69320000
H      -40.49760000     -33.59710000     -71.66840000
C      -43.12480000     -30.29580000     -69.62320000
H      -43.86180000     -29.53370000     -70.02780000
H      -42.29400000     -29.71150000     -69.24080000
C      -43.62600000     -31.53740000     -74.50500000
H      -44.47220000     -30.82570000     -74.29650000
H      -42.93970000     -31.08060000     -75.21620000
S      -44.11760000     -31.05420000     -68.19840000
S      -44.31620000     -33.13040000     -75.18050000
C      -45.44960000     -32.19360000     -68.82140000
H      -46.14930000     -32.26920000     -67.96970000
H      -45.90210000     -31.55100000     -69.55090000
C      -45.04590000     -34.00720000     -73.74510000
H      -44.30520000     -34.31380000     -73.05910000
H      -45.47800000     -34.94490000     -74.19880000
C      -46.10880000     -33.20920000     -72.92660000
H      -45.66250000     -32.59880000     -72.15140000
H      -46.63580000     -32.54370000     -73.62230000
C      -44.92070000     -33.49130000     -69.44920000
H      -44.13810000     -33.95570000     -68.86160000
H      -44.40050000     -33.16080000     -70.40690000
C      -46.01950000     -34.57320000     -69.75060000
C      -46.43340000     -35.31400000     -68.67140000
C      -47.04090000     -34.65710000     -70.88160000
H      -45.92800000     -35.49320000     -67.68940000
C      -48.04040000     -35.57430000     -70.64040000
C      -47.14170000     -34.17680000     -72.29600000
C      -48.31150000     -34.56730000     -72.90260000
S      -47.91940000     -36.30340000     -69.09200000
S      -49.26630000     -35.62060000     -71.83840000
H      -48.64060000     -34.39130000     -73.93700000
