40
Properties=species:S:1:pos:R:3 #=T CELL(abcABC):=T 1.889726e+02=T 90.00000=T Traj:=T positionsangstrom=T Step:=T 0=T Bead:=T pbc="F F F"
C      -41.93230000     -32.70400000     -72.77680000
C      -42.83050000     -31.70700000     -73.17260000
C      -43.27200000     -30.85300000     -72.12190000
C      -42.79620000     -31.00220000     -70.82600000
C      -41.82850000     -31.93720000     -70.54970000
C      -41.40510000     -32.86950000     -71.50990000
H      -41.61310000     -33.48230000     -73.49830000
H      -44.07070000     -30.17530000     -72.27130000
H      -41.49290000     -31.94540000     -69.50590000
H      -40.84090000     -33.73150000     -71.23070000
C      -43.42530000     -30.20390000     -69.73370000
H      -44.20480000     -29.62610000     -70.14150000
H      -42.73310000     -29.47030000     -69.27330000
C      -43.39360000     -31.62340000     -74.55700000
H      -44.05410000     -30.79460000     -74.74700000
H      -42.60510000     -31.51540000     -75.31490000
S      -43.81290000     -31.35770000     -68.31250000
S      -44.30160000     -33.14290000     -75.19590000
C      -45.22290000     -32.23220000     -69.17960000
H      -45.92760000     -32.54310000     -68.37800000
H      -45.78900000     -31.56990000     -69.86690000
C      -45.07340000     -34.04730000     -73.74120000
H      -44.29620000     -34.11160000     -72.94510000
H      -45.35090000     -35.06410000     -74.05620000
C      -46.39320000     -33.38120000     -73.20740000
H      -46.13200000     -32.41600000     -72.74220000
H      -47.11700000     -33.00820000     -74.02300000
C      -44.83150000     -33.62360000     -69.83420000
H      -44.00950000     -33.97660000     -69.24500000
H      -44.50310000     -33.55480000     -70.92210000
C      -46.04900000     -34.48970000     -69.75000000
C      -46.48540000     -35.21430000     -68.60500000
C      -47.01900000     -34.59980000     -70.86130000
H      -46.03660000     -35.26480000     -67.62340000
C      -48.14670000     -35.37640000     -70.41450000
C      -47.17570000     -34.20210000     -72.24940000
C      -48.33070000     -34.71490000     -72.80520000
S      -48.02760000     -36.10620000     -68.80210000
S      -49.31180000     -35.63880000     -71.74670000
H      -48.51260000     -34.67360000     -73.86360000
