40
Properties=species:S:1:pos:R:3 #=T CELL(abcABC):=T 1.889726e+02=T 90.00000=T Traj:=T positionsangstrom=T Step:=T 0=T Bead:=T pbc="F F F"
C      -44.05320000     -32.77530000     -73.28650000
C      -45.23780000     -33.09250000     -73.97150000
C      -46.37470000     -32.36780000     -73.53020000
C      -46.32700000     -31.42840000     -72.38170000
C      -45.05820000     -31.06260000     -71.85320000
C      -43.94220000     -31.66190000     -72.41830000
H      -43.14470000     -33.37820000     -73.53520000
H      -47.34730000     -32.51890000     -73.99630000
H      -45.00530000     -30.34960000     -71.00810000
H      -43.01300000     -31.33730000     -72.07840000
C      -47.56410000     -30.73140000     -71.98540000
H      -48.47410000     -31.31740000     -72.28150000
H      -47.63650000     -29.71970000     -72.37590000
C      -45.36520000     -34.20610000     -75.01690000
H      -46.34930000     -34.26810000     -75.48110000
H      -44.76770000     -34.21910000     -75.90720000
S      -47.66040000     -30.50820000     -70.16400000
S      -45.07700000     -35.78980000     -74.09510000
C      -48.22070000     -32.10210000     -69.52630000
H      -48.18900000     -32.08330000     -68.39160000
H      -49.27930000     -32.18400000     -69.76770000
C      -46.45240000     -35.91170000     -72.82940000
H      -47.14240000     -36.58940000     -73.15780000
H      -46.89350000     -34.95700000     -72.72010000
C      -45.94800000     -36.34580000     -71.47100000
H      -46.78040000     -36.42430000     -70.70420000
H      -45.60480000     -37.38270000     -71.64990000
C      -47.44680000     -33.28750000     -70.01210000
H      -47.49020000     -33.44140000     -71.08200000
H      -47.84400000     -34.24850000     -69.67280000
C      -45.91790000     -33.22810000     -69.71960000
C      -45.43800000     -32.37140000     -68.73500000
C      -44.94230000     -34.24650000     -70.08950000
H      -45.97590000     -31.53640000     -68.26460000
C      -43.67560000     -33.84330000     -69.63030000
C      -44.81840000     -35.53150000     -70.92170000
C      -43.53780000     -35.94760000     -71.02410000
S      -43.72670000     -32.51280000     -68.55120000
S      -42.38490000     -34.92990000     -70.18180000
H      -43.20130000     -36.79130000     -71.58500000
