40
Properties=species:S:1:pos:R:3 #=T CELL(abcABC):=T 1.889726e+02=T 90.00000=T Traj:=T positionsangstrom=T Step:=T 0=T Bead:=T pbc="F F F"
C      -44.07610000     -32.53430000     -73.61020000
C      -45.27630000     -33.10440000     -73.99800000
C      -46.48980000     -32.69520000     -73.41040000
C      -46.48650000     -31.68010000     -72.49720000
C      -45.24500000     -31.13670000     -72.03540000
C      -44.03600000     -31.66540000     -72.53850000
H      -43.16340000     -32.58670000     -74.14810000
H      -47.35420000     -33.22570000     -73.71210000
H      -45.22720000     -30.41170000     -71.21430000
H      -43.08810000     -31.14000000     -72.19000000
C      -47.77710000     -31.13180000     -71.99110000
H      -48.59760000     -31.85960000     -72.17620000
H      -48.04820000     -30.17970000     -72.42390000
C      -45.20990000     -34.27400000     -74.94630000
H      -46.04690000     -34.15370000     -75.68660000
H      -44.36360000     -34.21800000     -75.70040000
S      -47.75260000     -30.76040000     -70.13290000
S      -45.35840000     -35.93490000     -74.10000000
C      -48.19410000     -32.41640000     -69.42780000
H      -48.22580000     -32.25400000     -68.30600000
H      -49.21430000     -32.46850000     -69.64610000
C      -46.49830000     -35.76150000     -72.67040000
H      -47.31040000     -36.45760000     -72.90460000
H      -46.74100000     -34.71650000     -72.53620000
C      -45.82160000     -36.16440000     -71.41170000
H      -46.54010000     -36.10110000     -70.54340000
H      -45.35850000     -37.17910000     -71.43540000
C      -47.28430000     -33.59590000     -69.77460000
H      -47.35010000     -33.74230000     -70.87370000
H      -47.68700000     -34.55660000     -69.25490000
C      -45.87660000     -33.42370000     -69.39490000
C      -45.45470000     -32.45920000     -68.47260000
C      -44.75520000     -34.12840000     -70.02960000
H      -46.07870000     -31.95040000     -67.68350000
C      -43.51830000     -33.63350000     -69.66700000
C      -44.67150000     -35.26630000     -70.93490000
C      -43.37990000     -35.45300000     -71.30150000
S      -43.67030000     -32.33850000     -68.47310000
S      -42.19290000     -34.54220000     -70.43490000
H      -42.96550000     -36.21620000     -71.95200000
