40
Properties=species:S:1:pos:R:3 #=T CELL(abcABC):=T 1.889726e+02=T 90.00000=T Traj:=T positionsangstrom=T Step:=T 0=T Bead:=T pbc="F F F"
C      -44.21740000     -32.49410000     -73.36300000
C      -45.35770000     -33.12530000     -73.77840000
C      -46.63090000     -32.65530000     -73.30740000
C      -46.63860000     -31.63440000     -72.31860000
C      -45.45770000     -31.03250000     -71.88120000
C      -44.24740000     -31.44240000     -72.48950000
H      -43.34030000     -32.89910000     -73.76110000
H      -47.55520000     -33.17900000     -73.53770000
H      -45.36590000     -30.19740000     -71.20260000
H      -43.29950000     -30.93270000     -72.24120000
C      -47.97450000     -31.28110000     -71.74320000
H      -48.76430000     -32.02080000     -71.82330000
H      -48.27960000     -30.32860000     -72.14880000
C      -45.24790000     -34.24390000     -74.74930000
H      -46.18930000     -34.21200000     -75.35020000
H      -44.56800000     -34.11950000     -75.59160000
S      -48.07970000     -31.03280000     -69.88460000
S      -45.01500000     -35.98330000     -73.87770000
C      -48.35710000     -32.79890000     -69.32170000
H      -48.60620000     -32.74390000     -68.29730000
H      -49.33840000     -33.13810000     -69.80740000
C      -46.29570000     -36.03490000     -72.57860000
H      -46.97120000     -36.92470000     -72.87250000
H      -46.87470000     -35.11140000     -72.53340000
C      -45.80620000     -36.27450000     -71.11290000
H      -46.65220000     -36.14610000     -70.46140000
H      -45.47340000     -37.29460000     -71.06450000
C      -47.20240000     -33.69890000     -69.68890000
H      -47.42920000     -34.08380000     -70.67160000
H      -47.24940000     -34.61210000     -69.07950000
C      -45.71630000     -33.27470000     -69.54150000
C      -45.27210000     -32.14450000     -68.90990000
C      -44.66920000     -34.08410000     -70.08200000
H      -45.83230000     -31.47430000     -68.35570000
C      -43.37320000     -33.51090000     -69.95500000
C      -44.62900000     -35.32920000     -70.84140000
C      -43.40070000     -35.63780000     -71.22920000
S      -43.47310000     -32.01460000     -69.05230000
S      -42.19360000     -34.40290000     -70.83850000
H      -43.05970000     -36.46890000     -71.83130000
