40
Properties=species:S:1:pos:R:3 #=T CELL(abcABC):=T 1.889726e+02=T 90.00000=T Traj:=T positionsangstrom=T Step:=T 0=T Bead:=T pbc="F F F"
C      -43.65470000     -32.52190000     -73.15610000
C      -44.95270000     -32.82320000     -73.71340000
C      -46.07520000     -32.06500000     -73.28730000
C      -46.06220000     -31.04480000     -72.33820000
C      -44.83510000     -30.76360000     -71.73050000
C      -43.65230000     -31.43650000     -72.23560000
H      -42.68010000     -33.02490000     -73.30360000
H      -47.04900000     -32.18060000     -73.75260000
H      -44.69130000     -30.04830000     -70.88350000
H      -42.62880000     -31.29920000     -71.83510000
C      -47.36840000     -30.36760000     -71.89960000
H      -48.16890000     -30.74080000     -72.48150000
H      -47.32070000     -29.30230000     -72.08450000
C      -45.12180000     -33.82170000     -74.78510000
H      -45.95620000     -33.58350000     -75.41140000
H      -44.30410000     -33.88630000     -75.49160000
S      -47.82950000     -30.58720000     -70.10850000
S      -45.32430000     -35.62490000     -74.17250000
C      -48.29710000     -32.32180000     -69.68540000
H      -48.39420000     -32.20820000     -68.58470000
H      -49.25010000     -32.64080000     -70.10950000
C      -46.69350000     -35.42790000     -72.81810000
H      -47.60270000     -35.91350000     -73.24290000
H      -46.88470000     -34.32990000     -72.61740000
C      -46.27120000     -36.20640000     -71.57790000
H      -47.13120000     -36.17250000     -70.94560000
H      -46.09770000     -37.31180000     -71.79590000
C      -47.33160000     -33.44590000     -70.24300000
H      -47.28300000     -33.22960000     -71.34030000
H      -47.84940000     -34.35580000     -70.26790000
C      -45.95420000     -33.47110000     -69.74740000
C      -45.41540000     -32.50420000     -68.94150000
C      -44.96690000     -34.48990000     -70.16470000
H      -45.90770000     -31.65420000     -68.51280000
C      -43.69390000     -34.12330000     -69.79910000
C      -45.01370000     -35.73410000     -70.84330000
C      -43.76010000     -36.32070000     -70.89690000
S      -43.66880000     -32.76580000     -68.70750000
S      -42.52050000     -35.34600000     -70.18960000
H      -43.51990000     -37.22250000     -71.51070000
