40
Properties=species:S:1:pos:R:3 #=T CELL(abcABC):=T 1.889726e+02=T 90.00000=T Traj:=T positionsangstrom=T Step:=T 0=T Bead:=T pbc="F F F"
C      -46.63030000     -35.63470000     -72.66030000
C      -46.79180000     -36.03420000     -71.32300000
C      -47.43770000     -35.14400000     -70.47330000
C      -47.84480000     -33.89810000     -70.84940000
C      -47.58800000     -33.40950000     -72.15710000
C      -47.05900000     -34.29990000     -73.06330000
H      -46.09390000     -36.15030000     -73.44140000
H      -47.61400000     -35.59880000     -69.48540000
H      -47.85910000     -32.42880000     -72.40910000
H      -46.93340000     -33.95480000     -74.09430000
C      -48.51210000     -32.92940000     -69.85110000
H      -48.83580000     -33.59750000     -69.02150000
H      -49.44020000     -32.42830000     -70.30800000
C      -46.33600000     -37.38100000     -70.92780000
H      -46.84120000     -37.77900000     -70.12080000
H      -46.61300000     -38.17450000     -71.73410000
S      -47.44200000     -31.48490000     -69.27140000
S      -44.47320000     -37.42450000     -70.48820000
C      -46.01830000     -32.38220000     -68.58090000
H      -45.99950000     -32.33450000     -67.41800000
H      -46.06350000     -33.51250000     -68.82160000
C      -43.85930000     -36.06170000     -71.54810000
H      -44.38430000     -36.09960000     -72.41770000
H      -42.83560000     -36.22280000     -71.80560000
C      -43.89710000     -34.74180000     -70.85570000
H      -44.79750000     -34.64100000     -70.23550000
H      -43.16580000     -34.70320000     -70.02710000
C      -44.56580000     -31.80110000     -68.91090000
H      -43.76110000     -32.55440000     -68.64000000
H      -44.42570000     -30.85120000     -68.26870000
C      -44.34250000     -31.34770000     -70.39100000
C      -44.56380000     -30.06320000     -70.84090000
C      -43.99000000     -32.18770000     -71.50170000
H      -44.73120000     -29.25370000     -70.13130000
C      -43.97260000     -31.51450000     -72.70260000
C      -43.54500000     -33.56590000     -71.74530000
C      -43.03000000     -33.79270000     -73.01250000
S      -44.19140000     -29.79260000     -72.51000000
S      -43.22000000     -32.38820000     -74.03940000
H      -42.55420000     -34.71260000     -73.26100000
