40
Properties=species:S:1:pos:R:3 #=T CELL(abcABC):=T 1.889726e+02=T 90.00000=T Traj:=T positionsangstrom=T Step:=T 0=T Bead:=T pbc="F F F"
C      -44.19610000     -32.40200000     -73.29780000
C      -45.50320000     -32.40620000     -73.76230000
C      -46.39740000     -31.69120000     -72.98140000
C      -46.01320000     -30.87040000     -71.87810000
C      -44.63760000     -30.86710000     -71.46800000
C      -43.71500000     -31.64960000     -72.17070000
H      -43.49210000     -32.96010000     -73.84360000
H      -47.44250000     -31.67230000     -73.21750000
H      -44.26170000     -30.42890000     -70.49200000
H      -42.65520000     -31.49240000     -72.07300000
C      -47.11030000     -30.22580000     -71.05850000
H      -47.99380000     -30.33880000     -71.58580000
H      -46.88070000     -29.13290000     -70.99410000
C      -45.94270000     -33.19450000     -74.98950000
H      -46.97140000     -33.16890000     -75.21760000
H      -45.29170000     -32.97290000     -75.82500000
S      -47.35450000     -30.67480000     -69.32110000
S      -45.45650000     -34.99560000     -74.63070000
C      -48.15040000     -32.32830000     -69.41100000
H      -48.35580000     -32.72630000     -68.38190000
H      -49.13650000     -32.23170000     -69.84940000
C      -46.70380000     -35.39920000     -73.31210000
H      -47.52290000     -35.96910000     -73.71970000
H      -47.26890000     -34.44850000     -73.02070000
C      -46.20480000     -36.16190000     -72.08610000
H      -47.12150000     -36.22830000     -71.56810000
H      -45.91660000     -37.24030000     -72.33950000
C      -47.32870000     -33.47080000     -70.14790000
H      -47.16790000     -33.21570000     -71.19710000
H      -47.99490000     -34.34110000     -70.14470000
C      -45.93300000     -33.70680000     -69.60470000
C      -45.26430000     -33.14080000     -68.54470000
C      -44.93760000     -34.59530000     -70.33700000
H      -45.72660000     -32.45350000     -67.83210000
C      -43.67840000     -34.53900000     -69.81860000
C      -44.97330000     -35.59340000     -71.37620000
C      -43.71360000     -36.05370000     -71.74660000
S      -43.54660000     -33.49360000     -68.42010000
S      -42.44030000     -35.42350000     -70.76510000
H      -43.57100000     -36.77140000     -72.64930000
