40
Properties=species:S:1:pos:R:3 #=T CELL(abcABC):=T 1.889726e+02=T 90.00000=T Traj:=T positionsangstrom=T Step:=T 0=T Bead:=T pbc="F F F"
C      -44.11710000     -32.30120000     -73.25970000
C      -45.40330000     -32.46630000     -73.69810000
C      -46.37710000     -31.80130000     -73.01010000
C      -46.01560000     -31.01650000     -71.87660000
C      -44.72600000     -30.84420000     -71.45890000
C      -43.72940000     -31.45260000     -72.21620000
H      -43.34200000     -32.95120000     -73.66220000
H      -47.40590000     -31.87410000     -73.32390000
H      -44.49040000     -30.14820000     -70.62940000
H      -42.73780000     -31.56060000     -71.70120000
C      -47.02540000     -30.06860000     -71.18170000
H      -48.01330000     -29.92700000     -71.67050000
H      -46.76300000     -28.98600000     -71.02620000
C      -45.75310000     -33.43360000     -74.82290000
H      -46.80450000     -33.34800000     -75.13060000
H      -45.29750000     -33.17500000     -75.85380000
S      -47.17690000     -30.71140000     -69.38010000
S      -45.58040000     -35.22050000     -74.49480000
C      -48.10460000     -32.38860000     -69.40340000
H      -48.15850000     -32.69500000     -68.38540000
H      -49.10380000     -32.13300000     -69.77200000
C      -46.88760000     -35.52950000     -73.22000000
H      -47.72710000     -36.21370000     -73.65370000
H      -47.22970000     -34.59980000     -72.96640000
C      -46.29050000     -36.17060000     -72.00060000
H      -46.99840000     -36.16710000     -71.17260000
H      -46.11730000     -37.16130000     -72.27980000
C      -47.37450000     -33.51670000     -70.18060000
H      -47.32180000     -33.29470000     -71.26680000
H      -47.92260000     -34.46520000     -70.05600000
C      -45.93830000     -33.63110000     -69.77590000
C      -45.31990000     -32.95800000     -68.74640000
C      -44.92040000     -34.42110000     -70.48060000
H      -45.93490000     -32.59310000     -67.90200000
C      -43.68710000     -34.40470000     -69.91500000
C      -44.97290000     -35.48460000     -71.44880000
C      -43.73560000     -36.06320000     -71.70330000
S      -43.58310000     -33.39640000     -68.50260000
S      -42.46510000     -35.37190000     -70.64230000
H      -43.45550000     -37.00860000     -72.36910000
