40
Properties=species:S:1:pos:R:3 #=T CELL(abcABC):=T 1.889726e+02=T 90.00000=T Traj:=T positionsangstrom=T Step:=T 0=T Bead:=T pbc="F F F"
C      -44.88630000     -36.53740000     -69.44050000
C      -43.90890000     -35.47750000     -69.22930000
C      -42.96070000     -35.15350000     -70.15460000
C      -42.96040000     -35.82920000     -71.40110000
C      -44.04050000     -36.65450000     -71.70950000
C      -44.91350000     -37.14240000     -70.68890000
H      -45.48470000     -36.90640000     -68.56510000
H      -42.21900000     -34.44680000     -69.88160000
H      -43.89790000     -37.12360000     -72.73650000
H      -45.67230000     -37.91290000     -70.94650000
C      -41.94090000     -35.51480000     -72.40890000
H      -41.31080000     -36.38790000     -72.70190000
H      -41.14410000     -34.83130000     -71.94050000
C      -43.82580000     -34.90810000     -67.84640000
H      -44.70120000     -35.15760000     -67.27310000
H      -43.03840000     -35.33050000     -67.19050000
S      -42.76620000     -34.85450000     -73.90030000
S      -43.37040000     -33.06830000     -67.77780000
C      -44.01360000     -33.52550000     -73.42750000
H      -43.63660000     -32.90280000     -72.58510000
H      -44.03340000     -32.91820000     -74.28220000
C      -44.79780000     -32.17150000     -68.58820000
H      -44.76380000     -31.05290000     -68.33370000
H      -45.66690000     -32.42200000     -68.00120000
C      -45.17680000     -32.47610000     -70.05510000
H      -44.38340000     -32.29290000     -70.76590000
H      -45.41340000     -33.54600000     -70.13490000
C      -45.53280000     -33.92330000     -73.15690000
H      -45.62390000     -34.30610000     -72.15270000
H      -45.82230000     -34.73680000     -73.81560000
C      -46.47780000     -32.65080000     -73.27330000
C      -47.41940000     -32.54110000     -74.29900000
C      -46.80040000     -31.89840000     -72.06860000
H      -47.49470000     -33.02360000     -75.28190000
C      -47.90010000     -31.11130000     -72.31730000
C      -46.38800000     -31.78080000     -70.64490000
C      -47.24240000     -30.99500000     -69.94150000
S      -48.57550000     -31.25540000     -73.89340000
S      -48.58540000     -30.34020000     -70.89390000
H      -47.15260000     -30.82510000     -68.93440000
