40
Properties=species:S:1:pos:R:3 #=T CELL(abcABC):=T 1.889726e+02=T 90.00000=T Traj:=T positionsangstrom=T Step:=T 0=T Bead:=T pbc="F F F"
C      -43.71180000     -32.48680000     -73.10370000
C      -44.99260000     -32.82080000     -73.61690000
C      -46.18590000     -32.16750000     -73.20220000
C      -46.13320000     -31.14640000     -72.25910000
C      -44.88980000     -30.90310000     -71.60340000
C      -43.69970000     -31.46830000     -72.08140000
H      -42.85250000     -33.05040000     -73.51720000
H      -47.12780000     -32.40020000     -73.73070000
H      -44.79710000     -30.17180000     -70.75200000
H      -42.80070000     -31.16420000     -71.60520000
C      -47.42110000     -30.53900000     -71.79840000
H      -48.21650000     -31.17390000     -72.19040000
H      -47.60850000     -29.53890000     -72.14100000
C      -45.01840000     -33.78430000     -74.78050000
H      -45.65060000     -33.53320000     -75.62430000
H      -44.00290000     -33.75760000     -75.13470000
S      -47.53040000     -30.38030000     -69.94170000
S      -45.20280000     -35.54720000     -74.34950000
C      -48.14310000     -32.02500000     -69.42260000
H      -48.18260000     -32.13510000     -68.31940000
H      -49.20180000     -32.05620000     -69.77630000
C      -46.62210000     -35.59570000     -73.21940000
H      -47.44270000     -36.15010000     -73.65410000
H      -46.82250000     -34.53440000     -73.18960000
C      -46.40350000     -36.17460000     -71.74760000
H      -47.35550000     -35.91410000     -71.23820000
H      -46.31760000     -37.24310000     -71.71980000
C      -47.46400000     -33.29960000     -69.93760000
H      -47.51540000     -33.48750000     -70.98970000
H      -47.90300000     -34.15760000     -69.45090000
C      -45.97900000     -33.38670000     -69.56740000
C      -45.26230000     -32.59000000     -68.70760000
C      -45.13200000     -34.39510000     -70.21650000
H      -45.70840000     -31.66740000     -68.34630000
C      -43.81090000     -34.25560000     -69.79520000
C      -45.22050000     -35.61110000     -71.00550000
C      -44.00890000     -36.24910000     -71.29090000
S      -43.56670000     -32.95030000     -68.61950000
S      -42.65290000     -35.43920000     -70.48490000
H      -43.96430000     -37.08040000     -71.91640000
