40
Properties=species:S:1:pos:R:3 #=T CELL(abcABC):=T 1.889726e+02=T 90.00000=T Traj:=T positionsangstrom=T Step:=T 0=T Bead:=T pbc="F F F"
C      -47.06140000     -30.76270000     -73.22950000
C      -46.09560000     -31.20660000     -74.05450000
C      -46.16530000     -32.54150000     -74.55510000
C      -47.09680000     -33.48330000     -74.12710000
C      -48.07690000     -33.01720000     -73.19220000
C      -48.12210000     -31.69620000     -72.80650000
H      -47.00260000     -29.79490000     -72.74360000
H      -45.48380000     -32.82350000     -75.37230000
H      -48.79850000     -33.68510000     -72.83120000
H      -48.86130000     -31.37020000     -72.05040000
C      -47.02010000     -34.93790000     -74.57450000
H      -46.84030000     -34.85610000     -75.69370000
H      -47.88400000     -35.50320000     -74.34760000
C      -44.81470000     -30.31190000     -74.35180000
H      -44.63290000     -30.31930000     -75.46590000
H      -45.13920000     -29.33110000     -73.99200000
S      -45.63890000     -35.77750000     -73.90010000
S      -43.33330000     -30.97360000     -73.50000000
C      -46.05410000     -35.53660000     -72.09450000
H      -46.29620000     -34.54320000     -72.03780000
H      -46.96150000     -36.15630000     -71.94460000
C      -43.71150000     -31.21610000     -71.69880000
H      -44.34290000     -30.38340000     -71.36860000
H      -42.75940000     -31.07540000     -71.18000000
C      -44.32730000     -32.59200000     -71.37560000
H      -45.27790000     -32.72390000     -71.79910000
H      -43.72410000     -33.32240000     -71.85130000
C      -44.96970000     -36.04290000     -71.12600000
H      -43.98590000     -35.69870000     -71.38930000
H      -44.91780000     -37.10870000     -71.06390000
C      -45.00670000     -35.50610000     -69.64980000
C      -45.29520000     -36.30410000     -68.59970000
C      -44.74150000     -34.15130000     -69.23530000
H      -45.65580000     -37.37060000     -68.69180000
C      -44.78850000     -34.02780000     -67.85390000
C      -44.42740000     -32.84920000     -69.84490000
C      -44.15630000     -31.83960000     -68.87540000
S      -45.23480000     -35.56050000     -67.01290000
S      -44.40850000     -32.40520000     -67.22660000
H      -43.80460000     -30.86730000     -68.99440000
