40
Properties=species:S:1:pos:R:3 #=T CELL(abcABC):=T 1.889726e+02=T 90.00000=T Traj:=T positionsangstrom=T Step:=T 0=T Bead:=T pbc="F F F"
C      -47.30190000     -30.95110000     -73.39980000
C      -46.34860000     -31.47800000     -74.23130000
C      -46.39630000     -32.89000000     -74.48950000
C      -47.54340000     -33.60450000     -74.06610000
C      -48.59350000     -32.97730000     -73.40950000
C      -48.42730000     -31.68410000     -72.93900000
H      -47.21070000     -29.91230000     -73.01170000
H      -45.54530000     -33.29040000     -74.98350000
H      -49.48170000     -33.59940000     -73.16330000
H      -49.13260000     -31.29720000     -72.22960000
C      -47.54810000     -35.10770000     -74.24890000
H      -47.15620000     -35.28890000     -75.21850000
H      -48.58420000     -35.43800000     -74.13320000
C      -45.18000000     -30.64760000     -74.67000000
H      -45.01680000     -30.79070000     -75.74760000
H      -45.47090000     -29.58280000     -74.52480000
S      -46.38430000     -36.15270000     -73.22810000
S      -43.61280000     -31.24220000     -73.91090000
C      -46.44200000     -35.59870000     -71.53740000
H      -46.63820000     -34.55680000     -71.38770000
H      -47.24680000     -36.02880000     -70.86650000
C      -43.94060000     -31.18940000     -72.03190000
H      -44.95710000     -30.80130000     -71.80310000
H      -43.25750000     -30.44150000     -71.61140000
C      -43.69930000     -32.57430000     -71.47700000
H      -44.28530000     -33.34140000     -71.98480000
H      -42.72550000     -32.90540000     -71.75840000
C      -44.97090000     -35.84470000     -71.00910000
H      -44.18750000     -35.37810000     -71.60780000
H      -44.75160000     -36.87190000     -71.01620000
C      -44.84930000     -35.24000000     -69.58730000
C      -45.16430000     -35.99310000     -68.47950000
C      -44.28890000     -33.92110000     -69.24930000
H      -45.59450000     -37.00600000     -68.41590000
C      -44.21210000     -33.79280000     -67.85930000
C      -43.90240000     -32.65230000     -70.01210000
C      -43.52810000     -31.72220000     -69.13220000
S      -44.77500000     -35.18760000     -66.95000000
S      -43.62660000     -32.18160000     -67.33260000
H      -43.18660000     -30.73240000     -69.32480000
