40
Properties=species:S:1:pos:R:3 #=T CELL(abcABC):=T 1.889726e+02=T 90.00000=T Traj:=T positionsangstrom=T Step:=T 0=T Bead:=T pbc="F F F"
C      -47.48480000     -30.77320000     -73.29010000
C      -46.26700000     -31.24540000     -73.82180000
C      -46.21380000     -32.60930000     -74.25690000
C      -47.34440000     -33.44940000     -74.04700000
C      -48.55380000     -32.95270000     -73.50650000
C      -48.59800000     -31.56860000     -73.22340000
H      -47.57110000     -29.71090000     -73.07640000
H      -45.22380000     -33.11610000     -74.34150000
H      -49.32440000     -33.62780000     -73.30520000
H      -49.56830000     -31.18220000     -72.83550000
C      -47.27010000     -34.88470000     -74.59430000
H      -46.96950000     -34.90040000     -75.59260000
H      -48.26140000     -35.26130000     -74.63550000
C      -45.09270000     -30.27920000     -73.83960000
H      -45.03180000     -29.66450000     -74.73370000
H      -45.18980000     -29.62470000     -72.95680000
S      -46.04710000     -36.19220000     -73.68470000
S      -43.46180000     -31.30110000     -73.75790000
C      -46.21720000     -35.61350000     -71.87430000
H      -46.47300000     -34.55570000     -71.95380000
H      -47.00170000     -36.04330000     -71.31880000
C      -43.11300000     -31.56000000     -72.00950000
H      -43.16010000     -30.66170000     -71.37520000
H      -42.04190000     -31.89490000     -71.98190000
C      -43.98230000     -32.71020000     -71.40560000
H      -45.01720000     -32.69160000     -71.90090000
H      -43.48870000     -33.64530000     -71.72840000
C      -44.86390000     -35.85580000     -71.08500000
H      -44.05870000     -35.47230000     -71.66820000
H      -44.89090000     -36.90860000     -71.09200000
C      -44.88080000     -35.34690000     -69.62970000
C      -45.17990000     -36.13580000     -68.57940000
C      -44.48390000     -33.99140000     -69.16960000
H      -45.48060000     -37.21340000     -68.74360000
C      -44.46210000     -33.84180000     -67.81750000
C      -44.19670000     -32.74350000     -69.85660000
C      -43.94840000     -31.70490000     -68.98810000
S      -44.93450000     -35.27740000     -66.99860000
S      -44.08900000     -32.22940000     -67.30260000
H      -43.61980000     -30.76130000     -69.23970000
