40
Properties=species:S:1:pos:R:3 #=T CELL(abcABC):=T 1.889726e+02=T 90.00000=T Traj:=T positionsangstrom=T Step:=T 0=T Bead:=T pbc="F F F"
C      -47.93020000     -34.60500000     -73.07490000
C      -46.73680000     -35.06420000     -73.71260000
C      -45.99610000     -35.97880000     -72.93820000
C      -46.43050000     -36.42140000     -71.68660000
C      -47.54730000     -35.93250000     -71.08670000
C      -48.40000000     -35.05780000     -71.77980000
H      -48.63790000     -33.94070000     -73.55110000
H      -44.99720000     -36.37250000     -73.34210000
H      -47.77470000     -36.30470000     -70.12610000
H      -49.30250000     -34.66380000     -71.36160000
C      -45.62720000     -37.43010000     -70.93740000
H      -45.60080000     -38.41580000     -71.40750000
H      -46.07020000     -37.61890000     -69.96100000
C      -46.29100000     -34.52970000     -75.05420000
H      -45.91650000     -35.28570000     -75.74040000
H      -47.11720000     -34.01900000     -75.52580000
S      -43.87890000     -37.05560000     -70.57310000
S      -45.00260000     -33.22920000     -75.08760000
C      -44.12360000     -35.55230000     -69.53460000
H      -45.04180000     -35.77120000     -68.97920000
H      -43.26380000     -35.63880000     -68.87430000
C      -45.38990000     -32.07760000     -73.71790000
H      -46.16290000     -32.41350000     -73.04010000
H      -45.82210000     -31.22120000     -74.22110000
C      -44.14920000     -31.74390000     -72.85850000
H      -43.60440000     -32.63780000     -72.55850000
H      -43.36680000     -31.17930000     -73.46940000
C      -44.12620000     -34.19600000     -70.29540000
H      -45.08900000     -34.33600000     -70.85370000
H      -43.44040000     -34.22690000     -71.12690000
C      -44.28660000     -32.88610000     -69.63170000
C      -44.43430000     -32.74920000     -68.25830000
C      -44.61960000     -31.60260000     -70.26870000
H      -44.16290000     -33.51630000     -67.54580000
C      -45.00300000     -30.64800000     -69.30210000
C      -44.63260000     -31.13900000     -71.57170000
C      -44.96900000     -29.79950000     -71.58170000
S      -44.87020000     -31.12020000     -67.71020000
S      -45.39600000     -29.17120000     -70.02070000
H      -44.81900000     -29.19180000     -72.51630000
