40
Properties=species:S:1:pos:R:3 #=T CELL(abcABC):=T 1.889726e+02=T 90.00000=T Traj:=T positionsangstrom=T Step:=T 0=T Bead:=T pbc="F F F"
C      -43.42020000     -31.21560000     -71.74540000
C      -42.61960000     -32.39170000     -71.55390000
C      -42.84490000     -33.16790000     -70.43010000
C      -43.81570000     -32.87390000     -69.46610000
C      -44.62780000     -31.67980000     -69.64730000
C      -44.39700000     -30.89100000     -70.78290000
H      -43.27130000     -30.57560000     -72.59120000
H      -42.17420000     -33.97960000     -70.21980000
H      -45.34010000     -31.40760000     -68.88560000
H      -44.85540000     -29.87230000     -70.91090000
C      -43.83790000     -33.72080000     -68.17330000
H      -43.87340000     -33.10600000     -67.29120000
H      -42.91330000     -34.32510000     -68.07720000
C      -41.69320000     -32.88240000     -72.65410000
H      -41.02610000     -32.02880000     -72.91880000
H      -40.98250000     -33.63170000     -72.34540000
S      -45.31110000     -34.86060000     -68.11200000
S      -42.77030000     -33.35480000     -74.09450000
C      -45.00410000     -35.91740000     -69.58160000
H      -44.31310000     -35.44940000     -70.22170000
H      -44.63080000     -36.90870000     -69.17410000
C      -43.61920000     -34.84120000     -73.34500000
H      -43.49140000     -34.76280000     -72.24580000
H      -43.08550000     -35.70220000     -73.69360000
C      -45.12920000     -34.85070000     -73.62730000
H      -45.40000000     -34.89430000     -74.68370000
H      -45.55470000     -35.77870000     -73.14590000
C      -46.25090000     -36.06190000     -70.52730000
H      -47.09310000     -36.66990000     -70.13030000
H      -45.85940000     -36.45830000     -71.40330000
C      -47.02880000     -34.79100000     -70.88800000
C      -47.98950000     -34.38070000     -69.94880000
C      -46.93750000     -33.93660000     -72.00430000
H      -48.42090000     -35.05300000     -69.17440000
C      -47.74970000     -32.83150000     -71.81620000
C      -45.97330000     -33.71930000     -73.09070000
C      -46.13170000     -32.48210000     -73.63900000
S      -48.72100000     -32.80560000     -70.30690000
S      -47.40320000     -31.47210000     -72.91220000
H      -45.49570000     -32.10780000     -74.44300000
