40
Properties=species:S:1:pos:R:3 #=T CELL(abcABC):=T 1.889726e+02=T 90.00000=T Traj:=T positionsangstrom=T Step:=T 0=T Bead:=T pbc="F F F"
C      -44.44150000     -30.98300000     -71.89200000
C      -43.46260000     -32.00360000     -72.00000000
C      -43.17000000     -32.74380000     -70.82910000
C      -43.87800000     -32.58420000     -69.65420000
C      -44.90630000     -31.64940000     -69.63680000
C      -45.10620000     -30.76610000     -70.67560000
H      -44.69040000     -30.31380000     -72.70170000
H      -42.32480000     -33.50630000     -70.78760000
H      -45.48070000     -31.52820000     -68.75120000
H      -45.70260000     -29.90420000     -70.61320000
C      -43.38110000     -33.33460000     -68.40050000
H      -43.39070000     -32.66600000     -67.55340000
H      -42.37490000     -33.65010000     -68.55770000
C      -42.56230000     -32.28270000     -73.19380000
H      -42.32770000     -31.40250000     -73.81490000
H      -41.57800000     -32.72800000     -72.90090000
S      -44.40550000     -34.91850000     -67.90520000
S      -43.48150000     -33.50350000     -74.30140000
C      -44.51970000     -35.76680000     -69.56070000
H      -44.07290000     -35.24290000     -70.44520000
H      -44.02830000     -36.70010000     -69.51810000
C      -43.75660000     -35.00310000     -73.20370000
H      -43.49090000     -34.73580000     -72.20980000
H      -43.01420000     -35.79190000     -73.50060000
C      -45.17220000     -35.56070000     -73.15340000
H      -45.42360000     -36.22520000     -73.95810000
H      -45.03710000     -36.25170000     -72.26850000
C      -46.03730000     -35.89310000     -69.96400000
H      -46.68330000     -36.37160000     -69.20740000
H      -46.19160000     -36.58020000     -70.81660000
C      -46.68660000     -34.55970000     -70.26380000
C      -47.32230000     -33.70590000     -69.39810000
C      -46.71090000     -34.00760000     -71.63400000
H      -47.34930000     -33.86240000     -68.32120000
C      -47.41730000     -32.83480000     -71.69930000
C      -46.17210000     -34.46190000     -72.94940000
C      -46.55650000     -33.62230000     -73.96380000
S      -48.02670000     -32.21320000     -70.19330000
S      -47.41440000     -32.23460000     -73.36330000
H      -46.44580000     -33.66220000     -75.00950000
