40
Properties=species:S:1:pos:R:3 #=T CELL(abcABC):=T 1.889726e+02=T 90.00000=T Traj:=T positionsangstrom=T Step:=T 0=T Bead:=T pbc="F F F"
C      -44.06100000     -31.62000000     -71.82940000
C      -42.93070000     -32.46140000     -71.57700000
C      -42.72440000     -32.91500000     -70.25930000
C      -43.62000000     -32.74800000     -69.20810000
C      -44.63790000     -31.84950000     -69.42940000
C      -44.77680000     -31.16960000     -70.68470000
H      -44.25150000     -31.31340000     -72.85680000
H      -41.80640000     -33.50720000     -70.14080000
H      -45.37490000     -31.66910000     -68.62050000
H      -45.59020000     -30.51020000     -70.78360000
C      -43.51230000     -33.57600000     -67.93670000
H      -43.70070000     -33.14010000     -66.92890000
H      -42.50320000     -34.07470000     -67.92370000
C      -41.98090000     -32.90850000     -72.62710000
H      -41.33310000     -32.13560000     -72.98660000
H      -41.24110000     -33.63240000     -72.21400000
S      -44.99430000     -34.69290000     -68.06660000
S      -42.83510000     -33.46330000     -74.11620000
C      -44.80570000     -35.55490000     -69.76390000
H      -44.10500000     -34.85330000     -70.34720000
H      -44.41720000     -36.51380000     -69.50670000
C      -43.81170000     -34.87110000     -73.25930000
H      -43.69050000     -34.59140000     -72.24950000
H      -43.34140000     -35.87640000     -73.49890000
C      -45.24310000     -34.95110000     -73.79620000
H      -45.26400000     -35.06900000     -74.93480000
H      -45.66090000     -35.92750000     -73.44190000
C      -46.05870000     -35.97030000     -70.57730000
H      -46.55540000     -36.69450000     -70.04060000
H      -45.73430000     -36.41370000     -71.52270000
C      -46.91240000     -34.78090000     -70.85920000
C      -47.85230000     -34.34250000     -69.94710000
C      -46.73010000     -33.79520000     -71.95060000
H      -48.02500000     -34.80790000     -68.97030000
C      -47.57400000     -32.69940000     -71.74820000
C      -46.09060000     -33.78030000     -73.25140000
C      -46.48750000     -32.67350000     -73.97670000
S      -48.52060000     -32.73060000     -70.29350000
S      -47.54450000     -31.57890000     -73.02460000
H      -46.26720000     -32.47850000     -75.05090000
