40
Properties=species:S:1:pos:R:3 #=T CELL(abcABC):=T 1.889726e+02=T 90.00000=T Traj:=T positionsangstrom=T Step:=T 0=T Bead:=T pbc="F F F"
C      -44.89590000     -31.28500000     -72.89660000
C      -43.76770000     -32.16950000     -72.76950000
C      -43.18010000     -32.21690000     -71.49570000
C      -43.79120000     -31.65180000     -70.35380000
C      -45.06820000     -31.00410000     -70.48540000
C      -45.57010000     -30.77810000     -71.76730000
H      -45.36140000     -31.26300000     -73.83950000
H      -42.28130000     -32.82880000     -71.35320000
H      -45.54280000     -30.66260000     -69.58680000
H      -46.46320000     -30.29720000     -71.96380000
C      -43.13270000     -31.73920000     -69.02070000
H      -43.13710000     -30.87640000     -68.38560000
H      -42.13310000     -32.06000000     -69.16050000
C      -43.08770000     -32.84790000     -73.95030000
H      -43.28440000     -32.16300000     -74.79370000
H      -41.96160000     -32.81500000     -73.84250000
S      -43.96620000     -33.09080000     -68.02640000
S      -43.73510000     -34.51620000     -74.37760000
C      -43.97030000     -34.65420000     -69.01740000
H      -43.73910000     -34.52770000     -70.09380000
H      -43.18070000     -35.38740000     -68.76160000
C      -43.63770000     -35.46860000     -72.80300000
H      -43.33850000     -34.74930000     -71.99620000
H      -42.98390000     -36.35380000     -72.94470000
C      -45.03250000     -36.10780000     -72.32890000
H      -45.18370000     -36.90240000     -73.05100000
H      -44.79140000     -36.55050000     -71.31690000
C      -45.37390000     -35.27470000     -68.88420000
H      -45.71490000     -35.49230000     -67.78950000
H      -45.29150000     -36.25190000     -69.33910000
C      -46.33070000     -34.48030000     -69.67510000
C      -47.16160000     -33.60960000     -68.94880000
C      -46.45540000     -34.36220000     -71.12770000
H      -47.18070000     -33.45600000     -67.85220000
C      -47.44840000     -33.37560000     -71.41710000
C      -46.00010000     -34.99230000     -72.31500000
C      -46.62640000     -34.47750000     -73.39880000
S      -48.20340000     -32.73090000     -70.05580000
S      -47.74640000     -33.12380000     -73.09950000
H      -46.44840000     -34.76810000     -74.40500000
