40
Properties=species:S:1:pos:R:3 #=T CELL(abcABC):=T 1.889726e+02=T 90.00000=T Traj:=T positionsangstrom=T Step:=T 0=T Bead:=T pbc="F F F"
C      -43.92200000     -30.88700000     -72.23080000
C      -45.18480000     -30.93570000     -72.87840000
C      -46.33860000     -31.05350000     -72.12590000
C      -46.26500000     -31.11080000     -70.70840000
C      -45.02310000     -31.10730000     -70.10670000
C      -43.83330000     -30.93850000     -70.90950000
H      -43.01080000     -30.78760000     -72.85230000
H      -47.26890000     -31.04960000     -72.61180000
H      -44.96860000     -31.01110000     -69.01650000
H      -42.80330000     -31.13820000     -70.46640000
C      -47.61510000     -31.15620000     -69.94700000
H      -48.44250000     -31.57030000     -70.52910000
H      -47.92800000     -30.13640000     -69.75550000
C      -45.51460000     -31.09220000     -74.37830000
H      -46.48050000     -30.72320000     -74.63250000
H      -44.80060000     -30.44480000     -75.01310000
S      -47.53060000     -32.11820000     -68.36560000
S      -45.19850000     -32.90900000     -74.78370000
C      -48.10970000     -33.69050000     -69.07190000
H      -48.41480000     -34.45190000     -68.30340000
H      -49.15290000     -33.49930000     -69.56280000
C      -46.55350000     -33.75810000     -73.78480000
H      -47.44820000     -33.71720000     -74.39600000
H      -46.74950000     -33.18940000     -72.91040000
C      -46.24920000     -35.19090000     -73.45740000
H      -47.17070000     -35.52550000     -72.97670000
H      -46.21260000     -35.73180000     -74.30990000
C      -47.34880000     -34.42040000     -70.23680000
H      -47.45970000     -33.78350000     -71.12830000
H      -47.95790000     -35.31160000     -70.49610000
C      -45.88350000     -34.80260000     -70.09900000
C      -45.19450000     -34.74400000     -68.83000000
C      -44.92180000     -35.12310000     -71.12160000
H      -45.69020000     -34.48110000     -67.88050000
C      -43.63730000     -35.21590000     -70.60010000
C      -45.01250000     -35.31690000     -72.57810000
C      -43.79340000     -35.64000000     -73.11290000
S      -43.53910000     -34.97280000     -68.83140000
S      -42.50390000     -35.55130000     -71.92690000
H      -43.66570000     -35.75270000     -74.20680000
