40
Properties=species:S:1:pos:R:3 #=T CELL(abcABC):=T 1.889726e+02=T 90.00000=T Traj:=T positionsangstrom=T Step:=T 0=T Bead:=T pbc="F F F"
C      -44.33280000     -31.54990000     -72.62530000
C      -43.07920000     -32.07140000     -72.30440000
C      -42.65320000     -32.18930000     -70.96750000
C      -43.50440000     -31.77750000     -69.89580000
C      -44.62800000     -30.97570000     -70.24020000
C      -45.11130000     -30.93990000     -71.60990000
H      -44.64280000     -31.57170000     -73.63230000
H      -41.76980000     -32.69270000     -70.63470000
H      -45.37080000     -30.69060000     -69.51400000
H      -46.08520000     -30.40420000     -71.89990000
C      -43.14280000     -32.29560000     -68.45860000
H      -43.49330000     -31.46740000     -67.88920000
H      -42.09040000     -32.41020000     -68.32690000
C      -42.29200000     -32.74940000     -73.38520000
H      -42.00950000     -32.04560000     -74.23930000
H      -41.41650000     -33.15700000     -72.87510000
S      -44.10430000     -33.77550000     -67.93740000
S      -43.23190000     -34.06080000     -74.34270000
C      -43.89060000     -35.02270000     -69.31360000
H      -43.31650000     -34.49680000     -70.08410000
H      -43.39210000     -35.83300000     -68.94770000
C      -43.90430000     -35.20500000     -73.01790000
H      -43.64860000     -34.88210000     -71.93040000
H      -43.30210000     -36.14140000     -73.29480000
C      -45.34770000     -35.55090000     -73.31290000
H      -45.46850000     -35.63930000     -74.36630000
H      -45.46360000     -36.50330000     -72.79700000
C      -45.23410000     -35.53400000     -69.87980000
H      -45.69760000     -36.32090000     -69.27120000
H      -45.02010000     -35.99820000     -70.85510000
C      -46.35980000     -34.46760000     -70.08190000
C      -47.20060000     -33.98270000     -69.11630000
C      -46.76900000     -34.11970000     -71.44610000
H      -47.10540000     -34.09610000     -68.02630000
C      -47.82910000     -33.22430000     -71.43300000
C      -46.43900000     -34.52790000     -72.86970000
C      -47.36470000     -33.91860000     -73.73620000
S      -48.36170000     -32.86860000     -69.81840000
S      -48.53090000     -32.87480000     -72.97970000
H      -47.60510000     -33.98370000     -74.81410000
