40
Properties=species:S:1:pos:R:3 #=T CELL(abcABC):=T 1.889726e+02=T 90.00000=T Traj:=T positionsangstrom=T Step:=T 0=T Bead:=T pbc="F F F"
C      -44.37190000     -31.17520000     -72.13160000
C      -43.16100000     -31.97510000     -72.24530000
C      -42.70400000     -32.54580000     -71.05680000
C      -43.39330000     -32.30890000     -69.86220000
C      -44.60800000     -31.56290000     -69.78970000
C      -45.05230000     -30.98230000     -70.95520000
H      -44.78600000     -30.75500000     -73.05700000
H      -41.78900000     -33.11600000     -71.16320000
H      -45.14810000     -31.48660000     -68.86260000
H      -45.95150000     -30.28030000     -71.00100000
C      -43.02970000     -32.94650000     -68.49900000
H      -42.94150000     -32.17450000     -67.65490000
H      -41.97640000     -33.35800000     -68.46970000
C      -42.60190000     -32.33000000     -73.53240000
H      -42.71610000     -31.52000000     -74.22450000
H      -41.59740000     -32.63690000     -73.43910000
S      -44.25110000     -34.17420000     -67.97500000
S      -43.49130000     -33.85030000     -74.42330000
C      -44.15110000     -35.35510000     -69.43110000
H      -43.64190000     -34.73690000     -70.27270000
H      -43.54250000     -36.24750000     -69.11680000
C      -43.81240000     -35.10400000     -73.05390000
H      -43.37450000     -34.73570000     -72.09200000
H      -43.24140000     -35.97840000     -73.30110000
C      -45.23770000     -35.50130000     -73.20720000
H      -45.26660000     -35.78420000     -74.27100000
H      -45.50890000     -36.36770000     -72.62690000
C      -45.65220000     -35.78300000     -69.76600000
H      -45.98570000     -36.18980000     -68.81460000
H      -45.71090000     -36.59360000     -70.53250000
C      -46.46550000     -34.54640000     -70.16570000
C      -47.24790000     -33.85090000     -69.26910000
C      -46.76540000     -34.03420000     -71.52440000
H      -47.21000000     -33.76120000     -68.19290000
C      -47.73160000     -33.05590000     -71.53350000
C      -46.24670000     -34.37290000     -72.83730000
C      -46.89060000     -33.62460000     -73.79640000
S      -48.30530000     -32.57730000     -70.00940000
S      -48.15360000     -32.58180000     -73.10570000
H      -46.89440000     -33.85860000     -74.82510000
