40
Properties=species:S:1:pos:R:3 #=T CELL(abcABC):=T 1.889726e+02=T 90.00000=T Traj:=T positionsangstrom=T Step:=T 0=T Bead:=T pbc="F F F"
C      -44.79650000     -31.51800000     -72.90010000
C      -43.57160000     -32.12710000     -72.71020000
C      -43.04390000     -32.22920000     -71.40750000
C      -43.69050000     -31.59090000     -70.29580000
C      -44.86910000     -30.90760000     -70.55040000
C      -45.38900000     -30.82920000     -71.81890000
H      -45.11010000     -31.25170000     -73.91310000
H      -42.08770000     -32.70710000     -71.33310000
H      -45.24920000     -30.44130000     -69.69640000
H      -46.28220000     -30.21940000     -72.08150000
C      -43.24440000     -31.81810000     -68.87550000
H      -43.52890000     -30.88000000     -68.31940000
H      -42.10350000     -31.86250000     -68.81530000
C      -42.74190000     -32.79570000     -73.75110000
H      -42.68620000     -32.08190000     -74.61930000
H      -41.80850000     -33.10660000     -73.30540000
S      -44.03380000     -33.22320000     -67.94130000
S      -43.61030000     -34.35490000     -74.40510000
C      -43.99860000     -34.59350000     -69.20580000
H      -43.94230000     -34.07870000     -70.18290000
H      -43.19930000     -35.27330000     -69.07460000
C      -43.67390000     -35.53920000     -72.95410000
H      -43.35590000     -34.90320000     -72.11080000
H      -42.98190000     -36.45440000     -73.00500000
C      -45.12700000     -36.04330000     -72.65040000
H      -45.62550000     -36.71770000     -73.30450000
H      -45.08120000     -36.72020000     -71.75730000
C      -45.30440000     -35.38910000     -69.26990000
H      -45.54490000     -35.92660000     -68.37240000
H      -44.98320000     -36.05000000     -70.02700000
C      -46.44230000     -34.59000000     -69.72720000
C      -47.18110000     -33.73420000     -68.87660000
C      -46.65970000     -34.37550000     -71.10830000
H      -47.13280000     -33.54480000     -67.79330000
C      -47.63990000     -33.40820000     -71.33730000
C      -46.13110000     -34.91800000     -72.31840000
C      -46.75910000     -34.39980000     -73.43410000
S      -48.16380000     -32.65280000     -69.90020000
S      -47.96520000     -33.12630000     -73.05930000
H      -46.61070000     -34.79580000     -74.43040000
