40
Properties=species:S:1:pos:R:3 #=T CELL(abcABC):=T 1.889726e+02=T 90.00000=T Traj:=T positionsangstrom=T Step:=T 0=T Bead:=T pbc="F F F"
C      -43.07890000     -35.58950000     -67.65940000
C      -43.87920000     -34.40290000     -67.92700000
C      -43.55610000     -33.55120000     -68.96110000
C      -42.56200000     -33.88370000     -69.87250000
C      -41.89120000     -35.16310000     -69.74910000
C      -42.13550000     -35.97460000     -68.59710000
H      -43.19270000     -36.16020000     -66.83810000
H      -44.22720000     -32.74740000     -69.24540000
H      -41.11160000     -35.45610000     -70.44900000
H      -41.51580000     -36.86610000     -68.42990000
C      -42.12470000     -33.07980000     -71.05310000
H      -41.07350000     -33.32370000     -71.17870000
H      -42.16090000     -31.97130000     -70.86330000
C      -45.11340000     -34.10930000     -67.14650000
H      -45.00960000     -34.73380000     -66.27610000
H      -45.19030000     -33.13420000     -66.78680000
S      -42.92790000     -33.53690000     -72.69820000
S      -46.80190000     -34.56420000     -67.94300000
C      -44.17250000     -34.74280000     -72.10190000
H      -43.62320000     -35.63690000     -71.92090000
H      -44.43580000     -34.45550000     -71.09930000
C      -47.19560000     -33.16140000     -69.03020000
H      -46.67390000     -32.23780000     -68.66110000
H      -48.31120000     -32.98410000     -68.95440000
C      -46.85570000     -33.48890000     -70.50880000
H      -45.82030000     -33.83540000     -70.49720000
H      -47.40680000     -34.40220000     -70.82190000
C      -45.30590000     -34.94770000     -73.00790000
H      -46.00620000     -35.52810000     -72.38810000
H      -45.08680000     -35.56040000     -73.88470000
C      -45.91000000     -33.75280000     -73.62660000
C      -45.82150000     -33.57750000     -74.97220000
C      -46.64820000     -32.70980000     -72.93000000
H      -45.27190000     -34.07500000     -75.78290000
C      -47.06270000     -31.73270000     -73.85440000
C      -47.13580000     -32.40700000     -71.59860000
C      -47.93080000     -31.29790000     -71.48730000
S      -46.46720000     -32.00650000     -75.51090000
S      -48.05340000     -30.50000000     -73.10950000
H      -48.47160000     -30.76200000     -70.75110000
