40
Properties=species:S:1:pos:R:3 #=T CELL(abcABC):=T 1.889726e+02=T 90.00000=T Traj:=T positionsangstrom=T Step:=T 0=T Bead:=T pbc="F F F"
C      -45.88250000     -30.05380000     -72.47780000
C      -44.52700000     -30.15120000     -72.11690000
C      -43.75280000     -31.04830000     -72.82700000
C      -44.34010000     -31.89590000     -73.75680000
C      -45.71430000     -31.86290000     -74.07670000
C      -46.46570000     -30.93220000     -73.36940000
H      -46.28210000     -29.13050000     -72.24680000
H      -42.67760000     -31.14000000     -72.66920000
H      -46.14770000     -32.71880000     -74.60100000
H      -47.52150000     -30.84760000     -73.70830000
C      -43.44660000     -32.87580000     -74.53290000
H      -42.66120000     -32.34660000     -75.08450000
H      -44.12260000     -33.31050000     -75.26010000
C      -44.01190000     -29.34520000     -70.94930000
H      -43.15120000     -28.70280000     -71.24310000
H      -44.79540000     -28.61450000     -70.63290000
S      -42.66040000     -34.21420000     -73.54780000
S      -43.47610000     -30.46130000     -69.52340000
C      -44.12090000     -34.80260000     -72.66950000
H      -44.80470000     -33.97830000     -72.45610000
H      -44.62980000     -35.59160000     -73.20140000
C      -45.03630000     -31.42630000     -69.26900000
H      -45.95650000     -30.83400000     -69.27780000
H      -44.85210000     -31.70600000     -68.25390000
C      -45.13350000     -32.70340000     -70.17980000
H      -45.20080000     -32.31610000     -71.24550000
H      -44.21440000     -33.22360000     -70.13810000
C      -43.76440000     -35.52250000     -71.32530000
H      -43.09720000     -34.96500000     -70.68930000
H      -43.17100000     -36.41660000     -71.50120000
C      -45.05060000     -35.90180000     -70.69500000
C      -45.52250000     -37.18850000     -70.83980000
C      -46.14980000     -34.99900000     -70.20510000
H      -44.88520000     -38.05270000     -70.89340000
C      -47.34260000     -35.75920000     -69.84050000
C      -46.33660000     -33.61440000     -70.00020000
C      -47.66190000     -33.27960000     -69.71160000
S      -47.14960000     -37.46220000     -70.12010000
S      -48.71050000     -34.66130000     -69.67340000
H      -48.04440000     -32.33320000     -69.36480000
