40
Properties=species:S:1:pos:R:3 #=T CELL(abcABC):=T 1.889726e+02=T 90.00000=T Traj:=T positionsangstrom=T Step:=T 0=T Bead:=T pbc="F F F"
C      -43.20050000     -35.59280000     -67.73040000
C      -43.93420000     -34.41600000     -67.99240000
C      -43.59340000     -33.54910000     -68.98310000
C      -42.49760000     -33.90520000     -69.79520000
C      -41.67220000     -34.98800000     -69.52750000
C      -42.06340000     -35.87160000     -68.46210000
H      -43.49600000     -36.34340000     -67.06290000
H      -44.03530000     -32.53690000     -69.08250000
H      -40.86510000     -35.22110000     -70.15950000
H      -41.44160000     -36.75010000     -68.23450000
C      -42.35560000     -33.12060000     -71.07670000
H      -41.34950000     -32.81200000     -71.31730000
H      -42.88850000     -32.19460000     -70.98290000
C      -45.08610000     -34.10220000     -67.13920000
H      -45.09720000     -34.66110000     -66.20280000
H      -45.22340000     -33.01100000     -66.99600000
S      -43.10220000     -33.81890000     -72.60130000
S      -46.64270000     -34.56860000     -68.12450000
C      -44.19070000     -35.17280000     -72.16880000
H      -43.75270000     -36.18730000     -72.29780000
H      -44.52760000     -35.19240000     -71.08100000
C      -47.10410000     -33.02410000     -69.01310000
H      -46.62920000     -32.19150000     -68.59270000
H      -48.17990000     -32.90980000     -69.01430000
C      -46.59670000     -33.22470000     -70.45470000
H      -45.54490000     -33.15320000     -70.53560000
H      -46.79620000     -34.28720000     -70.73830000
C      -45.47050000     -35.04660000     -73.05460000
H      -46.38250000     -35.41770000     -72.53270000
H      -45.31140000     -35.70710000     -73.88310000
C      -45.83210000     -33.69960000     -73.60590000
C      -45.75580000     -33.44420000     -74.93460000
C      -46.68420000     -32.62200000     -72.95750000
H      -45.12010000     -33.93480000     -75.66690000
C      -46.99540000     -31.62910000     -73.87270000
C      -47.16650000     -32.35300000     -71.61010000
C      -48.02290000     -31.34150000     -71.52910000
S      -46.43270000     -31.89610000     -75.45820000
S      -48.11210000     -30.51070000     -73.13730000
H      -48.56990000     -31.01540000     -70.64890000
