40
Properties=species:S:1:pos:R:3 #=T CELL(abcABC):=T 1.889726e+02=T 90.00000=T Traj:=T positionsangstrom=T Step:=T 0=T Bead:=T pbc="F F F"
C      -48.17460000     -34.59310000     -73.26410000
C      -47.01260000     -35.14170000     -73.80380000
C      -46.23740000     -36.03090000     -72.97270000
C      -46.62780000     -36.40350000     -71.69380000
C      -47.66800000     -35.63950000     -71.10790000
C      -48.42550000     -34.79000000     -71.91890000
H      -48.74790000     -33.88800000     -73.90550000
H      -45.41920000     -36.59140000     -73.37520000
H      -48.07720000     -35.87630000     -70.13890000
H      -49.32270000     -34.19810000     -71.58730000
C      -45.82890000     -37.31820000     -70.78940000
H      -45.76330000     -38.21030000     -71.41390000
H      -46.49920000     -37.62150000     -69.89570000
C      -46.49770000     -34.71780000     -75.17920000
H      -46.10060000     -35.58550000     -75.62010000
H      -47.28300000     -34.38880000     -75.81150000
S      -44.08520000     -36.94050000     -70.27380000
S      -45.01880000     -33.60980000     -75.02900000
C      -44.08570000     -35.26570000     -69.39250000
H      -45.04370000     -34.90490000     -69.02540000
H      -43.35780000     -35.41230000     -68.59890000
C      -45.54380000     -32.54100000     -73.66870000
H      -46.22790000     -32.96920000     -72.98620000
H      -46.02570000     -31.68310000     -74.10280000
C      -44.34670000     -31.93670000     -72.89740000
H      -43.59820000     -32.79870000     -72.72840000
H      -43.64790000     -31.33180000     -73.49330000
C      -43.63340000     -34.05100000     -70.31350000
H      -44.17880000     -34.14720000     -71.23280000
H      -42.63100000     -34.17240000     -70.64730000
C      -44.04640000     -32.74620000     -69.65290000
C      -43.99160000     -32.63020000     -68.28700000
C      -44.55100000     -31.59150000     -70.28380000
H      -43.71040000     -33.44570000     -67.58680000
C      -44.90310000     -30.62720000     -69.31960000
C      -44.68340000     -31.14410000     -71.67180000
C      -45.07990000     -29.85170000     -71.70110000
S      -44.43910000     -31.04740000     -67.77090000
S      -45.33850000     -29.13120000     -70.06560000
H      -45.34530000     -29.36540000     -72.60130000
