40
Properties=species:S:1:pos:R:3 #=T CELL(abcABC):=T 1.889726e+02=T 90.00000=T Traj:=T positionsangstrom=T Step:=T 0=T Bead:=T pbc="F F F"
C      -43.83260000     -31.44170000     -71.52050000
C      -44.98070000     -31.03670000     -72.21930000
C      -46.19920000     -31.01130000     -71.50170000
C      -46.21890000     -31.33180000     -70.11670000
C      -44.98730000     -31.64420000     -69.41960000
C      -43.79240000     -31.66740000     -70.13140000
H      -42.92550000     -31.61230000     -72.07150000
H      -47.01850000     -30.87970000     -72.10160000
H      -45.00390000     -31.88780000     -68.35870000
H      -42.95780000     -32.14540000     -69.58860000
C      -47.55270000     -31.34550000     -69.34120000
H      -48.39550000     -31.34630000     -69.96060000
H      -47.67420000     -30.49430000     -68.65280000
C      -44.99480000     -30.69890000     -73.68550000
H      -45.98730000     -30.24940000     -73.89820000
H      -44.21970000     -30.06430000     -74.07800000
S      -47.73770000     -32.91380000     -68.21050000
S      -44.88180000     -32.31930000     -74.72990000
C      -48.37280000     -34.30220000     -69.35190000
H      -48.34880000     -35.14140000     -68.69210000
H      -49.39530000     -34.17900000     -69.59740000
C      -46.45930000     -33.07200000     -74.07570000
H      -47.19700000     -32.86790000     -74.87710000
H      -46.74320000     -32.52470000     -73.13370000
C      -46.43070000     -34.53590000     -73.74190000
H      -47.23590000     -34.72070000     -73.04340000
H      -46.49230000     -35.17430000     -74.62860000
C      -47.43970000     -34.60240000     -70.60340000
H      -47.64490000     -33.71820000     -71.26440000
H      -47.87670000     -35.52660000     -71.12980000
C      -45.99650000     -34.76490000     -70.40260000
C      -45.39030000     -34.96070000     -69.16680000
C      -45.02110000     -34.85330000     -71.48940000
H      -45.85710000     -34.96720000     -68.12660000
C      -43.71740000     -35.02090000     -71.03100000
C      -45.14420000     -34.85890000     -72.95550000
C      -43.91950000     -35.06400000     -73.57300000
S      -43.58040000     -35.22200000     -69.32360000
S      -42.58100000     -35.07910000     -72.43720000
H      -43.77750000     -35.00400000     -74.64730000
