40
Properties=species:S:1:pos:R:3 #=T CELL(abcABC):=T 1.889726e+02=T 90.00000=T Traj:=T positionsangstrom=T Step:=T 0=T Bead:=T pbc="F F F"
C      -43.79700000     -31.04510000     -71.69790000
C      -45.04340000     -30.95040000     -72.33470000
C      -46.26800000     -31.02940000     -71.59880000
C      -46.26680000     -31.11930000     -70.22860000
C      -45.03860000     -31.15830000     -69.55780000
C      -43.86890000     -31.14890000     -70.30760000
H      -42.77060000     -31.05320000     -72.24180000
H      -47.16670000     -30.90470000     -72.12240000
H      -44.94840000     -31.03200000     -68.49310000
H      -42.87090000     -31.22130000     -69.78040000
C      -47.51590000     -31.15650000     -69.41370000
H      -48.33930000     -30.92680000     -70.03360000
H      -47.59790000     -30.39800000     -68.57150000
C      -45.26570000     -30.94150000     -73.82150000
H      -46.26000000     -30.53270000     -74.05660000
H      -44.44570000     -30.32280000     -74.25500000
S      -47.73730000     -32.63580000     -68.34900000
S      -45.15100000     -32.56390000     -74.70340000
C      -48.23450000     -34.11640000     -69.29290000
H      -48.08440000     -34.94160000     -68.56630000
H      -49.30040000     -34.07850000     -69.43480000
C      -46.56370000     -33.58460000     -74.06130000
H      -47.30850000     -33.46070000     -74.77750000
H      -46.88560000     -33.14980000     -73.07070000
C      -46.16560000     -35.09720000     -73.83750000
H      -47.00340000     -35.68700000     -73.40730000
H      -45.88080000     -35.50910000     -74.84220000
C      -47.40140000     -34.27580000     -70.63010000
H      -47.39680000     -33.36400000     -71.20510000
H      -47.88550000     -35.05150000     -71.26510000
C      -45.95220000     -34.71220000     -70.41660000
C      -45.39940000     -34.77050000     -69.21000000
C      -44.95180000     -34.91560000     -71.49410000
H      -45.92480000     -34.58270000     -68.29970000
C      -43.64830000     -35.14050000     -70.93960000
C      -44.95130000     -35.16520000     -72.95520000
C      -43.70040000     -35.34190000     -73.46910000
S      -43.65790000     -35.16630000     -69.13920000
S      -42.43430000     -35.39750000     -72.12520000
H      -43.30580000     -35.47000000     -74.45760000
