40
Properties=species:S:1:pos:R:3 #=T CELL(abcABC):=T 1.889726e+02=T 90.00000=T Traj:=T positionsangstrom=T Step:=T 0=T Bead:=T pbc="F F F"
C      -44.15670000     -31.39830000     -72.03680000
C      -45.46700000     -31.06500000     -72.51160000
C      -46.53890000     -30.84910000     -71.67780000
C      -46.32800000     -30.88090000     -70.27790000
C      -45.07970000     -31.24030000     -69.73570000
C      -44.02560000     -31.48410000     -70.66840000
H      -43.43080000     -31.49370000     -72.84020000
H      -47.59860000     -30.76930000     -72.06750000
H      -44.97260000     -31.28940000     -68.66850000
H      -42.97080000     -31.60180000     -70.28530000
C      -47.55520000     -30.94120000     -69.42310000
H      -48.50050000     -30.84040000     -70.02300000
H      -47.58080000     -30.10510000     -68.75180000
C      -45.46890000     -30.93170000     -74.01700000
H      -46.45620000     -30.58980000     -74.32520000
H      -44.69460000     -30.23550000     -74.41020000
S      -47.78890000     -32.49820000     -68.41200000
S      -44.99520000     -32.58720000     -74.76650000
C      -48.20970000     -33.88680000     -69.58160000
H      -48.46000000     -34.79160000     -69.02940000
H      -49.16260000     -33.63040000     -70.09660000
C      -46.38430000     -33.49240000     -73.91530000
H      -47.29440000     -33.36800000     -74.54760000
H      -46.57950000     -33.06470000     -73.00180000
C      -46.12440000     -34.92960000     -73.71980000
H      -47.12490000     -35.35680000     -73.30430000
H      -45.83610000     -35.41530000     -74.69340000
C      -47.13230000     -34.10900000     -70.70750000
H      -47.20890000     -33.29700000     -71.46590000
H      -47.58760000     -34.90570000     -71.31910000
C      -45.72590000     -34.43300000     -70.29990000
C      -45.19110000     -34.42810000     -69.02350000
C      -44.77710000     -34.86130000     -71.28350000
H      -45.80200000     -34.25630000     -68.08360000
C      -43.57970000     -35.26380000     -70.73600000
C      -44.90990000     -35.15410000     -72.81420000
C      -43.71830000     -35.76760000     -73.23440000
S      -43.56880000     -35.07140000     -68.94620000
S      -42.45740000     -35.83230000     -71.97070000
H      -43.48350000     -36.08290000     -74.27690000
