40
Properties=species:S:1:pos:R:3 #=T CELL(abcABC):=T 1.889726e+02=T 90.00000=T Traj:=T positionsangstrom=T Step:=T 0=T Bead:=T pbc="F F F"
C      -44.05560000     -31.10540000     -71.82860000
C      -45.31190000     -30.89800000     -72.39870000
C      -46.50900000     -30.84520000     -71.62350000
C      -46.36380000     -30.95450000     -70.22480000
C      -45.07760000     -31.19360000     -69.65200000
C      -43.89900000     -31.29190000     -70.43530000
H      -43.13860000     -31.34720000     -72.46390000
H      -47.50220000     -30.72340000     -72.11520000
H      -45.07570000     -31.53460000     -68.62210000
H      -42.96930000     -31.78550000     -69.97310000
C      -47.64010000     -30.94940000     -69.35870000
H      -48.47440000     -30.81500000     -70.07950000
H      -47.62290000     -30.14720000     -68.62080000
C      -45.37170000     -30.87700000     -73.93990000
H      -46.42820000     -30.53910000     -74.26830000
H      -44.74470000     -30.18980000     -74.41570000
S      -47.76580000     -32.56100000     -68.40070000
S      -45.03460000     -32.58150000     -74.68710000
C      -48.30050000     -33.76200000     -69.70110000
H      -48.92810000     -34.54920000     -69.19370000
H      -49.00980000     -33.21080000     -70.28620000
C      -46.54810000     -33.59310000     -74.27620000
H      -47.27140000     -33.61310000     -75.10890000
H      -47.04200000     -33.06830000     -73.39880000
C      -46.16540000     -34.98080000     -73.68790000
H      -47.02820000     -35.27120000     -73.14150000
H      -46.17020000     -35.75460000     -74.41960000
C      -47.23140000     -34.37320000     -70.66270000
H      -47.12420000     -33.67370000     -71.48610000
H      -47.56470000     -35.34090000     -71.00020000
C      -45.80790000     -34.78320000     -70.28700000
C      -45.22400000     -34.76770000     -69.07250000
C      -44.91920000     -34.99840000     -71.35160000
H      -45.74370000     -34.69020000     -68.07630000
C      -43.64090000     -35.28420000     -70.84460000
C      -44.93820000     -35.20140000     -72.79980000
C      -43.65560000     -35.52270000     -73.28660000
S      -43.44920000     -35.02530000     -69.11150000
S      -42.44060000     -35.69570000     -71.99030000
H      -43.30240000     -35.67420000     -74.29790000
