40
Properties=species:S:1:pos:R:3 #=T CELL(abcABC):=T 1.889726e+02=T 90.00000=T Traj:=T positionsangstrom=T Step:=T 0=T Bead:=T pbc="F F F"
C      -43.36440000     -31.50780000     -71.65300000
C      -44.61940000     -31.02070000     -72.08080000
C      -45.76980000     -31.05930000     -71.18640000
C      -45.57310000     -31.52750000     -69.90450000
C      -44.30480000     -32.00510000     -69.52980000
C      -43.18410000     -32.03680000     -70.38760000
H      -42.56330000     -31.41560000     -72.37840000
H      -46.64070000     -30.50540000     -71.33870000
H      -44.25580000     -32.48000000     -68.54930000
H      -42.27510000     -32.41200000     -70.12000000
C      -46.74440000     -31.49690000     -69.00260000
H      -47.66220000     -31.35000000     -69.63180000
H      -46.66110000     -30.66640000     -68.24430000
C      -44.69690000     -30.43920000     -73.48720000
H      -45.29220000     -29.55540000     -73.43440000
H      -43.66550000     -30.18390000     -73.95530000
S      -47.03640000     -33.04950000     -68.05530000
S      -45.58370000     -31.52350000     -74.82380000
C      -48.23590000     -33.93180000     -69.09980000
H      -48.45300000     -34.92510000     -68.65330000
H      -49.17770000     -33.38110000     -69.31480000
C      -46.87450000     -32.53650000     -73.90320000
H      -47.78910000     -32.36760000     -74.41060000
H      -46.93720000     -32.09130000     -72.93530000
C      -46.56520000     -34.10200000     -73.82200000
H      -47.40920000     -34.52450000     -73.37250000
H      -46.43270000     -34.51090000     -74.81530000
C      -47.68640000     -34.36730000     -70.60700000
H      -47.63120000     -33.38970000     -71.17490000
H      -48.48250000     -34.96530000     -71.10980000
C      -46.34720000     -35.02480000     -70.56770000
C      -45.75830000     -35.49760000     -69.40370000
C      -45.34030000     -34.90790000     -71.57500000
H      -46.39570000     -35.73360000     -68.56620000
C      -44.11900000     -35.34590000     -71.23820000
C      -45.35940000     -34.43260000     -72.98780000
C      -44.09610000     -34.52950000     -73.57190000
S      -44.08230000     -35.99740000     -69.55630000
S      -42.85510000     -35.24770000     -72.42570000
H      -43.90480000     -34.29450000     -74.55900000
