40
Properties=species:S:1:pos:R:3 #=T CELL(abcABC):=T 1.889726e+02=T 90.00000=T Traj:=T positionsangstrom=T Step:=T 0=T Bead:=T pbc="F F F"
C      -43.59820000     -31.94810000     -71.46910000
C      -44.54180000     -31.02400000     -71.76200000
C      -45.53400000     -30.82520000     -70.72700000
C      -45.56820000     -31.54220000     -69.54780000
C      -44.46560000     -32.41310000     -69.24420000
C      -43.45080000     -32.55880000     -70.18810000
H      -42.85620000     -32.23020000     -72.19880000
H      -46.32600000     -30.12390000     -70.79750000
H      -44.24320000     -32.85720000     -68.25790000
H      -42.62760000     -33.27550000     -70.07480000
C      -46.74870000     -31.41810000     -68.63250000
H      -47.62800000     -30.90340000     -69.15780000
H      -46.55730000     -30.64160000     -67.86040000
C      -44.64030000     -30.25510000     -73.07820000
H      -45.25990000     -29.46540000     -73.10040000
H      -43.61860000     -29.96040000     -73.41620000
S      -47.29440000     -32.93270000     -67.83860000
S      -45.08880000     -31.52470000     -74.41940000
C      -48.15510000     -33.88410000     -69.15110000
H      -48.25990000     -34.90100000     -68.64920000
H      -49.16870000     -33.64450000     -69.39570000
C      -46.67040000     -32.26790000     -73.70460000
H      -47.55910000     -31.76910000     -74.15410000
H      -46.59400000     -31.96190000     -72.65420000
C      -46.78320000     -33.75140000     -73.92770000
H      -47.67530000     -34.12790000     -73.45260000
H      -46.72310000     -33.84910000     -75.04630000
C      -47.49880000     -34.08090000     -70.53610000
H      -47.52210000     -33.17090000     -71.18030000
H      -48.22810000     -34.70530000     -71.09190000
C      -46.11450000     -34.63920000     -70.62510000
C      -45.41660000     -35.12760000     -69.55150000
C      -45.38790000     -34.74380000     -71.83920000
H      -45.88260000     -35.33030000     -68.62170000
C      -44.17150000     -35.38820000     -71.63940000
C      -45.61420000     -34.52820000     -73.28290000
C      -44.50580000     -34.85510000     -74.01660000
S      -43.87680000     -35.90130000     -69.97240000
S      -43.23320000     -35.68620000     -73.11190000
H      -44.24770000     -34.79600000     -75.07680000
