40
Properties=species:S:1:pos:R:3 #=T CELL(abcABC):=T 1.889726e+02=T 90.00000=T Traj:=T positionsangstrom=T Step:=T 0=T Bead:=T pbc="F F F"
C      -43.84570000     -31.11520000     -71.69380000
C      -45.14600000     -30.80000000     -72.19120000
C      -46.25270000     -30.92670000     -71.29550000
C      -46.03440000     -31.42170000     -70.01950000
C      -44.72820000     -31.70200000     -69.55020000
C      -43.64560000     -31.63280000     -70.44120000
H      -42.93390000     -31.05260000     -72.28640000
H      -47.18990000     -30.54700000     -71.61460000
H      -44.56430000     -31.93180000     -68.51060000
H      -42.65850000     -31.99390000     -70.16400000
C      -47.24380000     -31.48830000     -69.05550000
H      -48.16410000     -31.34850000     -69.49960000
H      -47.12290000     -30.60820000     -68.38600000
C      -45.32700000     -30.35930000     -73.56250000
H      -46.26260000     -29.77420000     -73.61410000
H      -44.60870000     -29.72640000     -73.89790000
S      -47.41740000     -33.02640000     -68.07840000
S      -45.32450000     -31.75710000     -74.78940000
C      -48.22740000     -34.17970000     -69.40290000
H      -48.50500000     -35.08440000     -68.88990000
H      -49.19070000     -33.81230000     -69.59590000
C      -46.55560000     -32.91670000     -74.07830000
H      -47.59100000     -32.82400000     -74.61490000
H      -46.70950000     -32.63060000     -72.99800000
C      -46.10360000     -34.40360000     -73.99060000
H      -46.98620000     -35.00570000     -73.58500000
H      -45.83540000     -34.69400000     -75.01410000
C      -47.49430000     -34.37780000     -70.67800000
H      -47.31820000     -33.33770000     -71.10170000
H      -48.09670000     -34.86010000     -71.40910000
C      -46.10290000     -35.04620000     -70.54120000
C      -45.61240000     -35.46600000     -69.34960000
C      -45.06910000     -34.91850000     -71.58780000
H      -46.27680000     -35.55140000     -68.52480000
C      -43.78800000     -35.29640000     -71.05920000
C      -44.91310000     -34.70790000     -73.01980000
C      -43.62260000     -34.88280000     -73.46140000
S      -43.87460000     -35.75710000     -69.36830000
S      -42.49230000     -35.30320000     -72.21330000
H      -43.10560000     -34.67330000     -74.39450000
