40
Properties=species:S:1:pos:R:3 #=T CELL(abcABC):=T 1.889726e+02=T 90.00000=T Traj:=T positionsangstrom=T Step:=T 0=T Bead:=T pbc="F F F"
C      -45.80910000     -30.01110000     -72.67920000
C      -44.55470000     -30.05540000     -71.97050000
C      -43.56780000     -30.85240000     -72.51440000
C      -43.80550000     -31.69090000     -73.67680000
C      -45.08770000     -31.71570000     -74.22580000
C      -46.07080000     -30.85150000     -73.73540000
H      -46.64870000     -29.54260000     -72.14860000
H      -42.57540000     -30.76050000     -72.01110000
H      -45.33860000     -32.41380000     -75.09780000
H      -47.10840000     -31.07980000     -74.11460000
C      -42.79990000     -32.70130000     -74.13670000
H      -41.92520000     -32.27030000     -74.57450000
H      -43.20330000     -33.29620000     -74.89860000
C      -44.41910000     -29.18580000     -70.79820000
H      -43.43480000     -28.62070000     -70.84930000
H      -45.20550000     -28.45800000     -70.64920000
S      -42.06290000     -33.94060000     -72.88870000
S      -44.28240000     -30.19530000     -69.26690000
C      -43.74470000     -34.78200000     -72.89290000
H      -44.52890000     -34.08170000     -73.06880000
H      -43.68840000     -35.50370000     -73.72490000
C      -45.53400000     -31.51010000     -69.28140000
H      -46.31890000     -31.46750000     -70.06030000
H      -45.93380000     -31.46880000     -68.22410000
C      -45.05370000     -33.01160000     -69.58510000
H      -44.52680000     -33.01360000     -70.48720000
H      -44.24600000     -33.30950000     -68.86740000
C      -43.90360000     -35.64590000     -71.60200000
H      -43.51480000     -35.05000000     -70.85140000
H      -43.16320000     -36.43770000     -71.71520000
C      -45.31840000     -36.04420000     -71.26040000
C      -45.86000000     -37.23950000     -71.51880000
C      -46.23400000     -35.26780000     -70.40860000
H      -45.45830000     -38.09820000     -71.96340000
C      -47.43990000     -35.94500000     -70.19390000
C      -46.22490000     -33.88140000     -69.77220000
C      -47.46490000     -33.52450000     -69.40070000
S      -47.59860000     -37.51680000     -70.92510000
S      -48.61630000     -34.90210000     -69.48370000
H      -47.75910000     -32.52900000     -69.05890000
