40
Properties=species:S:1:pos:R:3 #=T CELL(abcABC):=T 1.889726e+02=T 90.00000=T Traj:=T positionsangstrom=T Step:=T 0=T Bead:=T pbc="F F F"
C      -45.99650000     -29.92410000     -71.76190000
C      -44.86930000     -30.12050000     -70.89420000
C      -43.65880000     -30.68190000     -71.38430000
C      -43.60630000     -31.05710000     -72.74310000
C      -44.68680000     -30.77070000     -73.62360000
C      -45.88130000     -30.18190000     -73.12220000
H      -46.91040000     -29.58750000     -71.28550000
H      -42.83090000     -30.89740000     -70.77090000
H      -44.50780000     -30.90410000     -74.68340000
H      -46.73600000     -30.05730000     -73.75300000
C      -42.30830000     -31.55350000     -73.32540000
H      -41.46740000     -30.98180000     -72.99450000
H      -42.18380000     -31.45300000     -74.37050000
C      -44.96800000     -29.65140000     -69.44580000
H      -44.20830000     -28.90160000     -69.23950000
H      -45.95010000     -28.99500000     -69.38770000
S      -41.94850000     -33.29860000     -72.84230000
S      -44.91690000     -31.01830000     -68.21820000
C      -43.57650000     -34.11180000     -72.94000000
H      -44.30600000     -33.35330000     -72.79080000
H      -43.76510000     -34.49180000     -73.89670000
C      -46.07900000     -32.10130000     -69.10860000
H      -46.51470000     -31.52420000     -69.84250000
H      -46.80900000     -32.39400000     -68.37660000
C      -45.45050000     -33.31090000     -69.78280000
H      -44.76070000     -32.91800000     -70.56330000
H      -44.74960000     -33.81000000     -69.02760000
C      -43.67240000     -35.21440000     -71.88160000
H      -43.45860000     -34.83590000     -70.84890000
H      -42.91620000     -35.97120000     -72.09790000
C      -45.01420000     -35.95560000     -71.78370000
C      -45.34840000     -37.06810000     -72.53290000
C      -46.16340000     -35.47140000     -71.02400000
H      -44.59790000     -37.54750000     -73.17590000
C      -47.29170000     -36.33080000     -71.15550000
C      -46.44750000     -34.28650000     -70.27130000
C      -47.81480000     -34.14430000     -70.05230000
S      -46.98800000     -37.58890000     -72.23010000
S      -48.71390000     -35.56140000     -70.50500000
H      -48.38720000     -33.34030000     -69.68960000
