40
Properties=species:S:1:pos:R:3 #=T CELL(abcABC):=T 1.889726e+02=T 90.00000=T Traj:=T positionsangstrom=T Step:=T 0=T Bead:=T pbc="F F F"
C      -45.96790000     -29.70800000     -71.69000000
C      -44.77980000     -29.90630000     -70.90260000
C      -43.64250000     -30.44780000     -71.49460000
C      -43.64060000     -30.95850000     -72.79550000
C      -44.77320000     -30.72820000     -73.60270000
C      -45.92160000     -30.09070000     -73.02120000
H      -46.80010000     -29.10560000     -71.35270000
H      -42.79600000     -30.47940000     -70.80510000
H      -44.81830000     -31.27650000     -74.50430000
H      -46.78350000     -29.85290000     -73.63800000
C      -42.40470000     -31.51790000     -73.40310000
H      -41.54110000     -30.95680000     -72.91970000
H      -42.47790000     -31.55780000     -74.50150000
C      -44.90590000     -29.60580000     -69.44870000
H      -44.12570000     -28.90430000     -69.03760000
H      -45.85670000     -29.12360000     -69.30550000
S      -42.05020000     -33.24990000     -72.89400000
S      -44.76030000     -31.00620000     -68.19720000
C      -43.68730000     -34.14960000     -72.93500000
H      -44.46940000     -33.40840000     -72.74710000
H      -43.93390000     -34.69300000     -73.93030000
C      -46.05480000     -32.27210000     -68.66650000
H      -47.09460000     -31.81380000     -68.85500000
H      -46.16120000     -32.86970000     -67.70090000
C      -45.61980000     -33.15450000     -69.86060000
H      -45.44170000     -32.55090000     -70.76130000
H      -44.72300000     -33.60830000     -69.67610000
C      -43.65590000     -35.19370000     -71.82900000
H      -43.42940000     -34.71700000     -70.89260000
H      -42.78620000     -35.77310000     -72.06930000
C      -44.95130000     -35.92440000     -71.75970000
C      -45.15000000     -37.17520000     -72.34450000
C      -46.16040000     -35.45350000     -71.09690000
H      -44.43990000     -37.84790000     -72.86650000
C      -47.27420000     -36.30270000     -71.36380000
C      -46.57110000     -34.34630000     -70.26480000
C      -47.89880000     -34.38080000     -69.89970000
S      -46.85190000     -37.74910000     -72.31040000
S      -48.78740000     -35.68630000     -70.62620000
H      -48.41780000     -33.67970000     -69.25610000
