40
Properties=species:S:1:pos:R:3 #=T CELL(abcABC):=T 1.889726e+02=T 90.00000=T Traj:=T positionsangstrom=T Step:=T 0=T Bead:=T pbc="F F F"
C      -43.46930000     -31.77070000     -71.22830000
C      -44.56350000     -31.00470000     -71.65380000
C      -45.57060000     -30.86730000     -70.69780000
C      -45.63550000     -31.54570000     -69.43690000
C      -44.53080000     -32.27730000     -69.07690000
C      -43.44700000     -32.37020000     -69.98040000
H      -42.64110000     -31.94380000     -71.88630000
H      -46.48260000     -30.23570000     -70.93240000
H      -44.55480000     -32.80120000     -68.11090000
H      -42.66950000     -33.02570000     -69.69200000
C      -46.75860000     -31.35890000     -68.51870000
H      -47.54040000     -30.75430000     -68.84620000
H      -46.30770000     -30.97800000     -67.56740000
C      -44.56430000     -30.25810000     -73.04020000
H      -45.29920000     -29.44340000     -72.90530000
H      -43.60040000     -29.86720000     -73.42220000
S      -47.37260000     -33.02790000     -67.88370000
S      -45.03890000     -31.41600000     -74.37500000
C      -48.18340000     -33.87210000     -69.31290000
H      -48.29000000     -34.95200000     -69.01130000
H      -49.15770000     -33.38050000     -69.35120000
C      -46.67160000     -32.14550000     -73.80520000
H      -47.46240000     -31.73310000     -74.46430000
H      -46.85550000     -31.83300000     -72.80540000
C      -46.68820000     -33.66220000     -73.89220000
H      -47.60230000     -34.00030000     -73.39980000
H      -46.79560000     -33.94410000     -74.97390000
C      -47.38220000     -33.87050000     -70.65360000
H      -47.15610000     -32.84770000     -70.89500000
H      -48.02460000     -34.22990000     -71.45730000
C      -46.08260000     -34.58850000     -70.67680000
C      -45.46410000     -35.21090000     -69.61340000
C      -45.29850000     -34.83630000     -71.91680000
H      -45.84610000     -35.21400000     -68.58830000
C      -44.17220000     -35.60530000     -71.66960000
C      -45.50440000     -34.49750000     -73.36450000
C      -44.48020000     -34.94980000     -74.15360000
S      -43.93880000     -35.98080000     -70.03540000
S      -43.30310000     -35.88540000     -73.15630000
H      -44.34610000     -34.75600000     -75.19420000
