40
Properties=species:S:1:pos:R:3 #=T CELL(abcABC):=T 1.889726e+02=T 90.00000=T Traj:=T positionsangstrom=T Step:=T 0=T Bead:=T pbc="F F F"
C      -45.75870000     -29.89200000     -71.89100000
C      -44.62360000     -29.94080000     -71.06420000
C      -43.41110000     -30.47370000     -71.55970000
C      -43.48500000     -31.07240000     -72.89710000
C      -44.67550000     -31.12070000     -73.65720000
C      -45.77260000     -30.53510000     -73.14730000
H      -46.61440000     -29.34630000     -71.44800000
H      -42.48030000     -30.72630000     -71.03790000
H      -44.76720000     -31.73630000     -74.55610000
H      -46.58310000     -30.43450000     -73.89390000
C      -42.23040000     -31.81260000     -73.40770000
H      -41.30390000     -31.33970000     -73.08340000
H      -42.28120000     -31.97130000     -74.48750000
C      -44.65200000     -29.44810000     -69.59180000
H      -43.72270000     -28.79860000     -69.36480000
H      -45.49120000     -28.82640000     -69.35070000
S      -41.99120000     -33.40490000     -72.50980000
S      -44.59580000     -30.91310000     -68.29420000
C      -43.61550000     -34.15420000     -72.78330000
H      -44.35920000     -33.47490000     -72.51670000
H      -43.71080000     -34.33190000     -73.83620000
C      -45.86650000     -32.21820000     -68.60820000
H      -46.81810000     -31.67360000     -68.80920000
H      -46.08070000     -32.68220000     -67.66680000
C      -45.54080000     -33.14710000     -69.70950000
H      -45.39530000     -32.58590000     -70.61660000
H      -44.60380000     -33.52360000     -69.42700000
C      -43.79620000     -35.34650000     -71.87190000
H      -43.56000000     -35.09190000     -70.86000000
H      -43.12820000     -36.17430000     -72.16630000
C      -45.23200000     -35.94160000     -71.86880000
C      -45.52610000     -36.93450000     -72.74970000
C      -46.36550000     -35.52330000     -71.03930000
H      -44.79530000     -37.37330000     -73.37100000
C      -47.49790000     -36.17370000     -71.34280000
C      -46.60730000     -34.32410000     -70.07820000
C      -47.90750000     -34.32570000     -69.67170000
S      -47.24800000     -37.32350000     -72.63250000
S      -48.86620000     -35.60140000     -70.36200000
H      -48.31480000     -33.66960000     -68.94810000
