40
Properties=species:S:1:pos:R:3 #=T CELL(abcABC):=T 1.889726e+02=T 90.00000=T Traj:=T positionsangstrom=T Step:=T 0=T Bead:=T pbc="F F F"
C      -45.87980000     -29.88870000     -71.76420000
C      -44.76780000     -29.98140000     -70.93830000
C      -43.57250000     -30.63490000     -71.42560000
C      -43.54610000     -31.03540000     -72.77690000
C      -44.66390000     -30.88130000     -73.65230000
C      -45.78640000     -30.29860000     -73.14760000
H      -46.73610000     -29.36250000     -71.37330000
H      -42.65220000     -30.68880000     -70.87960000
H      -44.60840000     -31.22200000     -74.71330000
H      -46.59850000     -30.26280000     -73.87530000
C      -42.30420000     -31.64740000     -73.31170000
H      -41.40100000     -31.00560000     -73.11500000
H      -42.53070000     -31.66950000     -74.43140000
C      -44.83020000     -29.52550000     -69.56220000
H      -43.91800000     -29.02770000     -69.29600000
H      -45.68550000     -28.96440000     -69.29730000
S      -41.89800000     -33.38530000     -72.71920000
S      -44.84960000     -30.94290000     -68.28640000
C      -43.60990000     -34.19880000     -72.74390000
H      -44.42490000     -33.40040000     -72.45840000
H      -43.83990000     -34.51890000     -73.80020000
C      -46.08000000     -32.22160000     -68.93770000
H      -46.87660000     -31.72300000     -69.50860000
H      -46.58570000     -32.72870000     -68.09090000
C      -45.44760000     -33.32370000     -69.70530000
H      -44.91360000     -32.93530000     -70.53230000
H      -44.70050000     -33.87420000     -69.03030000
C      -43.68450000     -35.43820000     -71.85350000
H      -43.31500000     -35.16280000     -70.85520000
H      -43.02600000     -36.18580000     -72.32590000
C      -45.10430000     -35.92380000     -71.87790000
C      -45.51520000     -37.07910000     -72.53910000
C      -46.21290000     -35.33090000     -71.21740000
H      -44.74910000     -37.56550000     -73.13150000
C      -47.39350000     -35.96440000     -71.54580000
C      -46.44430000     -34.32780000     -70.18980000
C      -47.71530000     -34.32600000     -69.65160000
S      -47.16290000     -37.47460000     -72.37460000
S      -48.77310000     -35.56570000     -70.45040000
H      -48.07240000     -33.71710000     -68.88350000
