40
Properties=species:S:1:pos:R:3 #=T CELL(abcABC):=T 1.889726e+02=T 90.00000=T Traj:=T positionsangstrom=T Step:=T 0=T Bead:=T pbc="F F F"
C      -41.80030000     -32.41610000     -72.91540000
C      -43.07640000     -32.32360000     -72.28240000
C      -44.14050000     -33.12700000     -72.69430000
C      -43.85600000     -34.06910000     -73.67590000
C      -42.50660000     -34.36590000     -74.01650000
C      -41.49510000     -33.48540000     -73.67650000
H      -41.00680000     -31.75350000     -72.57550000
H      -45.12010000     -32.98010000     -72.35190000
H      -42.22480000     -35.18030000     -74.74390000
H      -40.54480000     -33.48900000     -74.12940000
C      -44.92720000     -34.99760000     -74.10330000
H      -44.77680000     -35.21490000     -75.12170000
H      -45.83470000     -34.37980000     -73.95600000
C      -43.18170000     -31.27040000     -71.26790000
H      -42.30040000     -30.53950000     -71.42450000
H      -44.22440000     -30.91440000     -71.19140000
S      -44.92030000     -36.58160000     -73.09670000
S      -42.85230000     -31.63750000     -69.41620000
C      -45.15360000     -36.01310000     -71.27730000
H      -44.53380000     -36.69740000     -70.76610000
H      -44.72360000     -35.00440000     -71.19680000
C      -43.48830000     -33.35640000     -69.19870000
H      -42.79030000     -33.95040000     -68.61060000
H      -43.48390000     -33.91810000     -70.18830000
C      -44.93520000     -33.53080000     -68.58450000
H      -45.08970000     -34.57160000     -68.59860000
H      -44.96080000     -33.12740000     -67.51250000
C      -46.57000000     -35.98490000     -70.74540000
H      -46.55640000     -36.36300000     -69.62250000
H      -47.22040000     -36.74890000     -71.16410000
C      -47.21220000     -34.61010000     -70.92820000
C      -48.19870000     -34.43740000     -71.89270000
C      -47.00960000     -33.36890000     -70.18380000
H      -48.57460000     -35.08800000     -72.66070000
C      -47.91060000     -32.39430000     -70.56610000
C      -46.10050000     -32.79890000     -69.24190000
C      -46.40710000     -31.44980000     -68.91300000
S      -49.00060000     -32.93560000     -71.82540000
S      -47.77610000     -30.88420000     -69.80220000
H      -45.99840000     -30.98730000     -67.98950000
