40
Properties=species:S:1:pos:R:3 #=T CELL(abcABC):=T 1.889726e+02=T 90.00000=T Traj:=T positionsangstrom=T Step:=T 0=T Bead:=T pbc="F F F"
C      -46.15330000     -29.52840000     -71.11370000
C      -45.08480000     -29.99980000     -70.31830000
C      -43.96350000     -30.52360000     -71.05190000
C      -43.92200000     -30.56150000     -72.46760000
C      -44.96280000     -30.06180000     -73.23920000
C      -46.06510000     -29.60590000     -72.54080000
H      -47.04910000     -29.10400000     -70.74050000
H      -43.11870000     -30.93550000     -70.52500000
H      -44.80260000     -29.91760000     -74.30820000
H      -46.82300000     -29.03540000     -73.14570000
C      -42.68710000     -31.06240000     -73.21900000
H      -41.82260000     -30.39990000     -73.04760000
H      -42.81050000     -30.92490000     -74.27950000
C      -45.07960000     -29.85030000     -68.86820000
H      -44.14650000     -29.40160000     -68.58950000
H      -45.89600000     -29.17440000     -68.46000000
S      -41.97370000     -32.72530000     -72.62810000
S      -44.94960000     -31.52070000     -68.01740000
C      -43.56090000     -33.66990000     -72.76820000
H      -44.24450000     -32.96360000     -72.27880000
H      -43.98260000     -33.67850000     -73.82120000
C      -46.27520000     -32.61010000     -68.78740000
H      -47.14050000     -31.96490000     -68.94880000
H      -46.43220000     -33.37990000     -68.02400000
C      -45.85360000     -33.27430000     -70.16220000
H      -46.06440000     -32.45450000     -70.85180000
H      -44.79260000     -33.58460000     -69.97980000
C      -43.55740000     -34.97150000     -72.01930000
H      -43.40190000     -34.81690000     -70.95370000
H      -42.72890000     -35.61980000     -72.31830000
C      -44.83160000     -35.79040000     -72.12310000
C      -44.86500000     -36.98560000     -72.79820000
C      -46.14050000     -35.49690000     -71.60720000
H      -44.03680000     -37.43800000     -73.31000000
C      -47.05810000     -36.50080000     -71.87600000
C      -46.63790000     -34.50110000     -70.66670000
C      -47.90150000     -34.81150000     -70.24310000
S      -46.36100000     -37.85350000     -72.71480000
S      -48.53900000     -36.26230000     -70.91040000
H      -48.38500000     -34.09510000     -69.57890000
