40
Properties=species:S:1:pos:R:3 #=T CELL(abcABC):=T 1.889726e+02=T 90.00000=T Traj:=T positionsangstrom=T Step:=T 0=T Bead:=T pbc="F F F"
C      -46.12940000     -29.55690000     -71.15360000
C      -45.06180000     -30.07650000     -70.34890000
C      -43.86900000     -30.35280000     -71.02680000
C      -43.73080000     -30.30300000     -72.43700000
C      -44.81400000     -29.97350000     -73.23630000
C      -46.01550000     -29.54560000     -72.57920000
H      -46.99530000     -29.19310000     -70.61300000
H      -43.00270000     -30.59690000     -70.48020000
H      -44.73710000     -30.11940000     -74.28050000
H      -46.86080000     -29.26110000     -73.17230000
C      -42.49960000     -30.87360000     -73.19770000
H      -41.50600000     -30.35660000     -72.98210000
H      -42.60510000     -31.01820000     -74.28900000
C      -45.08290000     -30.07360000     -68.81820000
H      -44.23200000     -29.53670000     -68.37030000
H      -45.94290000     -29.43570000     -68.51320000
S      -42.08170000     -32.54600000     -72.52620000
S      -45.26810000     -31.73940000     -67.93220000
C      -43.51790000     -33.65940000     -72.92540000
H      -44.45330000     -33.17070000     -72.79990000
H      -43.35000000     -34.02560000     -73.94060000
C      -46.51500000     -32.78230000     -68.88240000
H      -47.43170000     -32.28060000     -69.17260000
H      -46.86040000     -33.52940000     -68.13080000
C      -45.80580000     -33.41260000     -70.06030000
H      -45.66010000     -32.60970000     -70.80280000
H      -44.76920000     -33.69330000     -69.77410000
C      -43.46140000     -34.97560000     -72.00360000
H      -43.12350000     -34.68790000     -71.03390000
H      -42.68030000     -35.58430000     -72.46720000
C      -44.74290000     -35.76430000     -72.12630000
C      -44.81170000     -36.83810000     -72.97310000
C      -45.98600000     -35.63330000     -71.39670000
H      -44.01060000     -37.21090000     -73.57150000
C      -46.93450000     -36.62850000     -71.66430000
C      -46.58460000     -34.62680000     -70.52220000
C      -47.90500000     -34.87350000     -70.16490000
S      -46.35990000     -37.68490000     -72.91920000
S      -48.56920000     -36.28240000     -71.00490000
H      -48.45620000     -34.33420000     -69.41980000
