40
Properties=species:S:1:pos:R:3 #=T CELL(abcABC):=T 1.889726e+02=T 90.00000=T Traj:=T positionsangstrom=T Step:=T 0=T Bead:=T pbc="F F F"
C      -43.29120000     -32.91650000     -69.71120000
C      -43.59640000     -31.70040000     -70.33940000
C      -44.88250000     -31.12980000     -70.19050000
C      -45.89770000     -31.66160000     -69.35310000
C      -45.58700000     -32.85720000     -68.74470000
C      -44.29610000     -33.44850000     -68.91650000
H      -42.50660000     -33.56840000     -69.92870000
H      -45.08950000     -30.13260000     -70.63160000
H      -46.33700000     -33.45520000     -68.29520000
H      -44.01110000     -34.38190000     -68.40760000
C      -47.21780000     -30.93020000     -69.20020000
H      -47.27130000     -29.93000000     -69.64340000
H      -47.50490000     -30.85860000     -68.13300000
C      -42.58390000     -30.97890000     -71.25070000
H      -43.01000000     -29.90700000     -71.48980000
H      -41.63840000     -30.82860000     -70.63730000
S      -48.66490000     -31.90800000     -69.83720000
S      -42.20830000     -31.72140000     -72.94320000
C      -48.45780000     -31.98500000     -71.61750000
H      -49.31840000     -32.52320000     -71.97780000
H      -48.53060000     -30.96380000     -71.92700000
C      -43.88230000     -31.80770000     -73.65620000
H      -43.95430000     -31.21680000     -74.56580000
H      -44.58500000     -31.56220000     -72.89780000
C      -44.38690000     -33.22380000     -74.18160000
H      -45.45670000     -33.00470000     -74.46990000
H      -43.80510000     -33.59490000     -75.01690000
C      -47.17780000     -32.59170000     -72.19050000
H      -46.19400000     -32.03780000     -71.97720000
H      -47.22340000     -32.39260000     -73.29240000
C      -46.86040000     -34.06900000     -71.94830000
C      -47.57600000     -34.87780000     -71.11970000
C      -45.60880000     -34.65530000     -72.27860000
H      -48.51640000     -34.67640000     -70.56960000
C      -45.46700000     -35.95570000     -71.71670000
C      -44.42390000     -34.27120000     -73.08270000
C      -43.45290000     -35.21750000     -72.94540000
S      -46.73520000     -36.38810000     -70.61440000
S      -43.89070000     -36.62810000     -72.02940000
H      -42.48790000     -35.16230000     -73.43390000
