40
Properties=species:S:1:pos:R:3 #=T CELL(abcABC):=T 1.889726e+02=T 90.00000=T Traj:=T positionsangstrom=T Step:=T 0=T Bead:=T pbc="F F F"
C      -43.81170000     -30.83670000     -74.48310000
C      -44.45240000     -30.65250000     -73.26140000
C      -45.78930000     -30.96530000     -73.17380000
C      -46.51810000     -31.56150000     -74.16140000
C      -45.86890000     -31.78190000     -75.37980000
C      -44.52910000     -31.39940000     -75.53290000
H      -42.84930000     -30.36230000     -74.55530000
H      -46.19520000     -30.69240000     -72.20880000
H      -46.45780000     -32.29250000     -76.18840000
H      -44.09950000     -31.41080000     -76.55710000
C      -47.94960000     -31.91930000     -73.84380000
H      -48.57370000     -31.57520000     -74.61230000
H      -48.25110000     -31.52050000     -72.90410000
C      -43.65100000     -29.99760000     -72.16950000
H      -42.66000000     -30.46390000     -72.09520000
H      -43.48330000     -28.87450000     -72.28420000
S      -48.22710000     -33.80180000     -73.76770000
S      -44.45460000     -30.05610000     -70.50100000
C      -47.82920000     -34.16200000     -72.03080000
H      -48.32570000     -33.38560000     -71.44560000
H      -48.37320000     -35.03560000     -71.85650000
C      -44.26510000     -31.77190000     -69.71340000
H      -45.29010000     -32.11770000     -69.58860000
H      -43.77580000     -31.58590000     -68.72390000
C      -43.33920000     -32.83830000     -70.37530000
H      -43.31440000     -33.01090000     -71.47690000
H      -42.34450000     -32.48860000     -70.14930000
C      -46.31830000     -34.25010000     -71.76620000
H      -45.90400000     -33.29750000     -71.61680000
H      -45.87480000     -34.68560000     -72.62530000
C      -45.98980000     -35.13060000     -70.60740000
C      -46.74910000     -36.22890000     -70.32640000
C      -44.79580000     -34.99540000     -69.74230000
H      -47.63580000     -36.57970000     -70.81640000
C      -44.75430000     -36.05710000     -68.80530000
C      -43.63120000     -34.13810000     -69.64450000
C      -42.83230000     -34.47550000     -68.57880000
S      -46.16840000     -37.10270000     -68.89170000
S      -43.30490000     -35.99830000     -67.75410000
H      -41.89710000     -34.14810000     -68.16490000
