40
Properties=species:S:1:pos:R:3 #=T CELL(abcABC):=T 1.889726e+02=T 90.00000=T Traj:=T positionsangstrom=T Step:=T 0=T Bead:=T pbc="F F F"
C      -43.87670000     -30.81660000     -74.44660000
C      -44.46340000     -30.65310000     -73.21020000
C      -45.81190000     -31.04500000     -73.03310000
C      -46.58760000     -31.47520000     -74.12070000
C      -46.01670000     -31.28860000     -75.38410000
C      -44.68590000     -31.04340000     -75.61390000
H      -42.80980000     -30.64600000     -74.60060000
H      -46.22730000     -31.04540000     -72.06830000
H      -46.72230000     -31.49450000     -76.13720000
H      -44.32390000     -31.01170000     -76.65630000
C      -48.05430000     -31.83580000     -74.06430000
H      -48.44360000     -31.91400000     -75.09300000
H      -48.70630000     -31.19550000     -73.50100000
C      -43.54740000     -30.19660000     -72.12170000
H      -42.60100000     -30.78500000     -71.97810000
H      -43.38400000     -29.16500000     -72.33410000
S      -48.22710000     -33.56140000     -73.49980000
S      -44.31400000     -30.09450000     -70.38960000
C      -47.79460000     -33.77520000     -71.71970000
H      -47.83340000     -32.89600000     -71.15890000
H      -48.59210000     -34.48800000     -71.41510000
C      -44.77190000     -31.78950000     -69.80900000
H      -45.83500000     -32.16910000     -70.03780000
H      -44.72870000     -31.67800000     -68.70230000
C      -43.69180000     -32.74290000     -70.28350000
H      -43.68950000     -32.85650000     -71.33090000
H      -42.78150000     -32.34940000     -69.92060000
C      -46.43390000     -34.37640000     -71.68800000
H      -45.64520000     -33.65480000     -71.75130000
H      -46.28670000     -34.99740000     -72.53190000
C      -46.05980000     -35.20630000     -70.46070000
C      -46.68470000     -36.39110000     -70.23520000
C      -44.85970000     -35.05150000     -69.69450000
H      -47.56730000     -36.70650000     -70.81920000
C      -44.65900000     -36.17340000     -68.87920000
C      -43.79190000     -34.08700000     -69.60590000
C      -42.86600000     -34.51180000     -68.72010000
S      -45.86050000     -37.37800000     -68.99710000
S      -43.07250000     -36.20230000     -68.19700000
H      -41.92740000     -34.02420000     -68.48240000
