40
Properties=species:S:1:pos:R:3 #=T CELL(abcABC):=T 1.889726e+02=T 90.00000=T Traj:=T positionsangstrom=T Step:=T 0=T Bead:=T pbc="F F F"
C      -41.69560000     -32.22900000     -72.80170000
C      -42.98570000     -32.10890000     -72.27010000
C      -44.05710000     -32.95580000     -72.65920000
C      -43.79010000     -33.97950000     -73.52040000
C      -42.49000000     -34.03590000     -74.13950000
C      -41.41730000     -33.21690000     -73.72780000
H      -40.83300000     -31.67690000     -72.56050000
H      -44.96810000     -32.85950000     -72.13520000
H      -42.20160000     -34.81420000     -74.80970000
H      -40.39080000     -33.40340000     -73.99050000
C      -44.95530000     -34.90640000     -73.84390000
H      -45.13430000     -35.10530000     -74.89290000
H      -45.87750000     -34.48320000     -73.36570000
C      -43.36870000     -31.07980000     -71.24650000
H      -42.99750000     -30.08100000     -71.38250000
H      -44.41760000     -30.87950000     -71.30300000
S      -44.94000000     -36.58000000     -72.95650000
S      -42.91960000     -31.67060000     -69.55390000
C      -44.95150000     -36.00110000     -71.22750000
H      -44.29910000     -36.67590000     -70.62330000
H      -44.41570000     -35.02860000     -71.19510000
C      -43.56600000     -33.37740000     -69.45010000
H      -42.80330000     -33.86750000     -68.91950000
H      -43.66160000     -33.76970000     -70.47070000
C      -44.87820000     -33.51600000     -68.68510000
H      -44.95480000     -34.58270000     -68.43330000
H      -44.71940000     -33.09540000     -67.72070000
C      -46.30450000     -35.88230000     -70.49640000
H      -46.00360000     -35.74970000     -69.50850000
H      -46.81170000     -36.78570000     -70.63310000
C      -47.18410000     -34.71800000     -70.90240000
C      -48.24260000     -34.74700000     -71.80380000
C      -46.95280000     -33.41350000     -70.34740000
H      -48.67990000     -35.61350000     -72.35990000
C      -47.90890000     -32.50880000     -70.69640000
C      -46.07460000     -32.89690000     -69.26180000
C      -46.42530000     -31.57950000     -68.96800000
S      -49.10450000     -33.13610000     -71.87870000
S      -47.88010000     -31.01670000     -69.83630000
H      -46.00550000     -30.93820000     -68.16990000
