40
Properties=species:S:1:pos:R:3 #=T CELL(abcABC):=T 1.889726e+02=T 90.00000=T Traj:=T positionsangstrom=T Step:=T 0=T Bead:=T pbc="F F F"
C      -46.13010000     -29.42170000     -71.12600000
C      -45.32720000     -30.07080000     -70.21140000
C      -44.12870000     -30.56670000     -70.65610000
C      -43.73850000     -30.40880000     -72.00920000
C      -44.57900000     -29.82310000     -72.96200000
C      -45.78280000     -29.28880000     -72.43940000
H      -47.12160000     -28.93040000     -70.84430000
H      -43.51840000     -31.05830000     -69.87260000
H      -44.27580000     -29.70110000     -73.97890000
H      -46.47590000     -28.67860000     -73.06950000
C      -42.30940000     -31.03270000     -72.38930000
H      -41.53220000     -30.22920000     -72.04620000
H      -42.16030000     -31.08790000     -73.46230000
C      -45.74240000     -30.11730000     -68.70220000
H      -45.22110000     -29.39410000     -68.03370000
H      -46.76680000     -29.79810000     -68.56680000
S      -42.07850000     -32.66670000     -71.46950000
S      -45.50680000     -31.76530000     -67.80580000
C      -43.30370000     -33.70650000     -72.39770000
H      -44.24750000     -33.27240000     -72.16150000
H      -43.24240000     -33.75790000     -73.46640000
C      -46.50200000     -33.12130000     -68.71160000
H      -47.29700000     -32.56820000     -69.22790000
H      -46.86200000     -33.83590000     -67.90890000
C      -45.71850000     -33.88050000     -69.83580000
H      -45.27230000     -33.12370000     -70.45040000
H      -44.79180000     -34.17520000     -69.33670000
C      -43.28880000     -35.12260000     -71.84050000
H      -43.42190000     -35.16060000     -70.73460000
H      -42.38670000     -35.52580000     -72.23990000
C      -44.57130000     -35.92820000     -72.31720000
C      -44.61030000     -36.80200000     -73.40240000
C      -45.96280000     -35.54420000     -71.79210000
H      -43.73500000     -37.04310000     -73.95800000
C      -46.92050000     -36.27950000     -72.46230000
C      -46.55900000     -34.82340000     -70.64200000
C      -47.92960000     -34.97180000     -70.63850000
S      -46.25080000     -37.35410000     -73.76670000
S      -48.57290000     -36.07130000     -71.85330000
H      -48.53280000     -34.43880000     -69.83180000
