40
Properties=species:S:1:pos:R:3 #=T CELL(abcABC):=T 1.889726e+02=T 90.00000=T Traj:=T positionsangstrom=T Step:=T 0=T Bead:=T pbc="F F F"
C      -46.32460000     -29.55830000     -71.19800000
C      -45.48650000     -30.09810000     -70.20560000
C      -44.22730000     -30.54550000     -70.61950000
C      -43.74680000     -30.44600000     -71.94030000
C      -44.53140000     -29.74920000     -72.90010000
C      -45.84050000     -29.29860000     -72.46560000
H      -47.39890000     -29.33250000     -71.02790000
H      -43.53290000     -31.05070000     -69.94450000
H      -44.25710000     -29.58640000     -73.95690000
H      -46.58100000     -28.93470000     -73.20410000
C      -42.51540000     -31.15230000     -72.44350000
H      -41.73280000     -30.44500000     -72.35650000
H      -42.60700000     -31.53740000     -73.44080000
C      -45.86580000     -30.25530000     -68.73770000
H      -45.43670000     -29.43140000     -68.21390000
H      -46.96810000     -30.27420000     -68.66930000
S      -42.02610000     -32.70340000     -71.57200000
S      -45.36280000     -31.84950000     -67.98950000
C      -43.14920000     -33.87760000     -72.50510000
H      -44.05370000     -33.26680000     -72.63420000
H      -42.83030000     -34.16330000     -73.51900000
C      -46.45380000     -32.94450000     -68.90000000
H      -47.19860000     -32.37990000     -69.27100000
H      -47.00800000     -33.63900000     -68.21410000
C      -45.66800000     -33.75810000     -69.88140000
H      -45.20310000     -33.18170000     -70.67990000
H      -44.98940000     -34.48060000     -69.42120000
C      -43.28530000     -35.18260000     -71.63910000
H      -43.37390000     -34.92150000     -70.52990000
H      -42.33320000     -35.79360000     -71.84070000
C      -44.57580000     -35.90050000     -72.12710000
C      -44.62620000     -36.75870000     -73.25040000
C      -45.92280000     -35.61870000     -71.68120000
H      -43.80800000     -37.35570000     -73.60650000
C      -46.92750000     -36.31760000     -72.28540000
C      -46.57370000     -34.71100000     -70.70280000
C      -47.90480000     -34.67770000     -70.74160000
S      -46.24720000     -37.36540000     -73.57150000
S      -48.54580000     -35.89380000     -71.83540000
H      -48.57000000     -34.15640000     -70.04510000
