40
Properties=species:S:1:pos:R:3 #=T CELL(abcABC):=T 1.889726e+02=T 90.00000=T Traj:=T positionsangstrom=T Step:=T 0=T Bead:=T pbc="F F F"
C      -43.94570000     -31.35770000     -74.15770000
C      -44.55140000     -30.54090000     -73.20330000
C      -45.95280000     -30.64170000     -73.03180000
C      -46.66450000     -31.53470000     -73.80010000
C      -46.11580000     -32.20960000     -74.88230000
C      -44.73710000     -32.10170000     -75.05340000
H      -42.84030000     -31.27040000     -74.22490000
H      -46.43590000     -30.27930000     -72.14940000
H      -46.85790000     -32.74870000     -75.56620000
H      -44.20430000     -32.59860000     -75.89350000
C      -48.14370000     -31.62400000     -73.44930000
H      -48.81040000     -31.35720000     -74.28110000
H      -48.41000000     -30.80950000     -72.68290000
C      -43.84320000     -29.57730000     -72.30840000
H      -42.71010000     -29.57160000     -72.42800000
H      -44.18310000     -28.53570000     -72.40860000
S      -48.82150000     -33.18080000     -72.85500000
S      -43.87380000     -29.89380000     -70.40590000
C      -47.86760000     -33.77520000     -71.46500000
H      -47.64920000     -33.00200000     -70.72400000
H      -48.48940000     -34.50200000     -71.03930000
C      -44.67190000     -31.59180000     -70.19400000
H      -45.71420000     -31.52250000     -70.38900000
H      -44.55880000     -31.73160000     -69.14960000
C      -43.75230000     -32.75780000     -70.71150000
H      -43.92290000     -33.05130000     -71.74320000
H      -42.73120000     -32.45240000     -70.71010000
C      -46.53070000     -34.59810000     -71.96370000
H      -45.66890000     -33.88440000     -72.33530000
H      -46.86350000     -35.21570000     -72.83380000
C      -45.83510000     -35.48320000     -70.94790000
C      -46.31290000     -36.76680000     -70.69500000
C      -44.75740000     -35.15890000     -70.00530000
H      -47.12120000     -37.26280000     -71.14690000
C      -44.49190000     -36.22130000     -69.15800000
C      -43.85500000     -34.03720000     -69.85650000
C      -42.95210000     -34.27660000     -68.89620000
S      -45.44000000     -37.62820000     -69.50140000
S      -43.18000000     -35.84940000     -68.06680000
H      -42.12320000     -33.65130000     -68.69080000
