40
Properties=species:S:1:pos:R:3 #=T CELL(abcABC):=T 1.889726e+02=T 90.00000=T Traj:=T positionsangstrom=T Step:=T 0=T Bead:=T pbc="F F F"
C      -47.59330000     -32.38610000     -73.71010000
C      -48.21330000     -32.46750000     -72.44100000
C      -47.85000000     -31.52940000     -71.44720000
C      -46.83180000     -30.61070000     -71.70740000
C      -46.05700000     -30.75670000     -72.89620000
C      -46.48860000     -31.61250000     -73.92600000
H      -48.00270000     -33.01660000     -74.51390000
H      -48.27660000     -31.63720000     -70.45280000
H      -45.02110000     -30.37960000     -72.88900000
H      -45.86660000     -31.57700000     -74.79560000
C      -46.47420000     -29.55260000     -70.64440000
H      -47.43080000     -28.95320000     -70.45360000
H      -45.76250000     -28.83050000     -71.02080000
C      -49.23710000     -33.53880000     -72.13890000
H      -50.16350000     -33.21700000     -71.71110000
H      -49.49110000     -34.03350000     -73.05430000
S      -45.99280000     -30.27760000     -69.05430000
S      -48.64070000     -34.81190000     -70.96610000
C      -44.47400000     -31.07840000     -69.64340000
H      -44.10290000     -30.39480000     -70.45550000
H      -43.83050000     -31.04910000     -68.76810000
C      -46.99170000     -35.33080000     -71.41630000
H      -46.57010000     -34.49350000     -72.00360000
H      -47.09370000     -36.23260000     -72.04800000
C      -45.95350000     -35.64040000     -70.31620000
H      -45.79530000     -34.82700000     -69.61960000
H      -46.24760000     -36.45010000     -69.63390000
C      -44.75640000     -32.57520000     -69.99950000
H      -45.67800000     -32.75060000     -70.66710000
H      -44.93740000     -33.13170000     -69.08310000
C      -43.68080000     -33.23830000     -70.82150000
C      -42.50180000     -32.69800000     -71.21590000
C      -43.73290000     -34.68350000     -71.18720000
H      -42.21400000     -31.66680000     -71.21870000
C      -42.51500000     -35.13790000     -71.67000000
C      -44.56100000     -35.81170000     -70.88100000
C      -43.98170000     -37.04880000     -71.13370000
S      -41.30520000     -33.84160000     -71.91820000
S      -42.41810000     -36.85590000     -71.82490000
H      -44.55480000     -37.95790000     -71.10870000
