40
Properties=species:S:1:pos:R:3 #=T CELL(abcABC):=T 1.889726e+02=T 90.00000=T Traj:=T positionsangstrom=T Step:=T 0=T Bead:=T pbc="F F F"
C      -46.56110000     -30.00750000     -70.96850000
C      -45.73620000     -30.35740000     -69.93550000
C      -44.37680000     -30.61640000     -70.21060000
C      -43.86440000     -30.39260000     -71.44980000
C      -44.76640000     -30.08360000     -72.54040000
C      -46.10020000     -29.93430000     -72.27990000
H      -47.58750000     -29.83730000     -70.77840000
H      -43.76630000     -30.84600000     -69.36070000
H      -44.36220000     -29.93370000     -73.55430000
H      -46.78510000     -29.58840000     -73.06450000
C      -42.40220000     -30.58780000     -71.65650000
H      -41.71940000     -30.02940000     -70.92340000
H      -42.01210000     -30.27260000     -72.60950000
C      -46.15620000     -30.48110000     -68.46020000
H      -45.68120000     -29.63060000     -67.83620000
H      -47.20760000     -30.30940000     -68.21160000
S      -41.84240000     -32.38960000     -71.56910000
S      -45.80960000     -32.10650000     -67.75690000
C      -43.11840000     -33.37360000     -72.46190000
H      -44.01800000     -32.79450000     -72.20620000
H      -42.88130000     -33.29780000     -73.53190000
C      -46.73950000     -33.27820000     -68.87090000
H      -47.60090000     -32.68740000     -69.18730000
H      -47.09850000     -34.08120000     -68.25260000
C      -45.85710000     -33.74330000     -69.99810000
H      -45.56890000     -32.88890000     -70.59110000
H      -45.01360000     -34.24060000     -69.54660000
C      -43.21370000     -34.77260000     -71.92440000
H      -43.20900000     -34.90650000     -70.82540000
H      -42.41020000     -35.30100000     -72.26710000
C      -44.41690000     -35.52150000     -72.52970000
C      -44.42960000     -36.37330000     -73.64090000
C      -45.75880000     -35.42850000     -72.02170000
H      -43.58040000     -36.49810000     -74.30600000
C      -46.65830000     -36.25940000     -72.64870000
C      -46.43010000     -34.71940000     -70.95440000
C      -47.77620000     -34.99000000     -70.93870000
S      -45.97560000     -37.12940000     -74.03030000
S      -48.24300000     -36.22550000     -71.99050000
H      -48.50620000     -34.71370000     -70.22350000
