40
Properties=species:S:1:pos:R:3 #=T CELL(abcABC):=T 1.889726e+02=T 90.00000=T Traj:=T positionsangstrom=T Step:=T 0=T Bead:=T pbc="F F F"
C      -43.29130000     -33.41550000     -69.88220000
C      -43.17570000     -32.36460000     -70.70720000
C      -44.19980000     -31.34940000     -70.72900000
C      -45.34900000     -31.58350000     -70.01420000
C      -45.43210000     -32.66400000     -69.15520000
C      -44.44520000     -33.65700000     -69.10240000
H      -42.63250000     -34.23460000     -69.82490000
H      -43.88950000     -30.48530000     -71.23680000
H      -46.35200000     -32.77680000     -68.61970000
H      -44.68210000     -34.50070000     -68.41910000
C      -46.31520000     -30.44680000     -69.78460000
H      -46.10310000     -29.65310000     -70.55230000
H      -46.10680000     -29.88680000     -68.84860000
C      -41.90860000     -32.13740000     -71.48080000
H      -41.55830000     -31.11720000     -71.56170000
H      -41.11590000     -32.62690000     -71.01930000
S      -48.09910000     -31.11050000     -69.91630000
S      -42.03270000     -32.86980000     -73.17730000
C      -48.38390000     -31.39310000     -71.73310000
H      -49.26490000     -31.88730000     -71.75020000
H      -48.56870000     -30.49200000     -72.36640000
C      -43.69820000     -32.40550000     -73.89740000
H      -43.49210000     -31.74560000     -74.73040000
H      -44.09080000     -31.75110000     -73.09920000
C      -44.74320000     -33.49870000     -74.14180000
H      -45.74490000     -32.93230000     -74.33840000
H      -44.54950000     -34.04730000     -75.11880000
C      -47.39740000     -32.23770000     -72.43280000
H      -46.41720000     -31.78920000     -72.52560000
H      -47.76620000     -32.39580000     -73.47710000
C      -47.13240000     -33.65310000     -71.75950000
C      -47.97890000     -34.37360000     -70.87080000
C      -45.94670000     -34.47390000     -72.01620000
H      -48.91560000     -33.98160000     -70.43590000
C      -45.86740000     -35.53030000     -71.09740000
C      -44.86330000     -34.45710000     -72.97430000
C      -43.95340000     -35.45240000     -72.69140000
S      -47.24610000     -35.75620000     -70.07370000
S      -44.43170000     -36.54880000     -71.37710000
H      -43.04400000     -35.63690000     -73.20610000
