40
Properties=species:S:1:pos:R:3 #=T CELL(abcABC):=T 1.889726e+02=T 90.00000=T Traj:=T positionsangstrom=T Step:=T 0=T Bead:=T pbc="F F F"
C      -46.49750000     -29.90930000     -71.01420000
C      -45.60140000     -30.31170000     -69.96100000
C      -44.26180000     -30.45600000     -70.18110000
C      -43.70440000     -30.43790000     -71.46210000
C      -44.59330000     -30.09960000     -72.48890000
C      -45.95190000     -29.87450000     -72.24580000
H      -47.52650000     -29.68560000     -70.76360000
H      -43.56010000     -30.52440000     -69.31900000
H      -44.20910000     -30.14740000     -73.50130000
H      -46.56570000     -29.73230000     -73.11440000
C      -42.28540000     -30.67430000     -71.78100000
H      -41.68900000     -30.10680000     -71.00320000
H      -41.96850000     -30.23810000     -72.72850000
C      -46.21320000     -30.42520000     -68.52960000
H      -45.80610000     -29.67030000     -67.89330000
H      -47.31990000     -30.31570000     -68.52200000
S      -41.73660000     -32.48660000     -71.71940000
S      -45.84440000     -32.02800000     -67.70380000
C      -43.16370000     -33.32010000     -72.47290000
H      -44.07960000     -32.74030000     -72.25390000
H      -43.10520000     -33.46920000     -73.57990000
C      -46.72370000     -33.23980000     -68.86240000
H      -47.57600000     -32.68650000     -69.31360000
H      -47.15660000     -34.02760000     -68.22780000
C      -45.78950000     -33.88250000     -69.91610000
H      -45.26430000     -33.08470000     -70.48100000
H      -44.92910000     -34.37090000     -69.36910000
C      -43.27610000     -34.74400000     -71.95750000
H      -43.04520000     -34.73510000     -70.88900000
H      -42.36710000     -35.20490000     -72.40690000
C      -44.54370000     -35.44110000     -72.49960000
C      -44.46130000     -36.26530000     -73.57790000
C      -45.90730000     -35.48490000     -71.96930000
H      -43.54720000     -36.52690000     -74.10580000
C      -46.82200000     -36.16550000     -72.75050000
C      -46.50520000     -34.90050000     -70.83240000
C      -47.80300000     -35.31180000     -70.64420000
S      -46.04200000     -37.00550000     -74.02810000
S      -48.36980000     -36.31020000     -72.02090000
H      -48.47390000     -34.97030000     -69.91880000
