40
Properties=species:S:1:pos:R:3 #=T CELL(abcABC):=T 1.889726e+02=T 90.00000=T Traj:=T positionsangstrom=T Step:=T 0=T Bead:=T pbc="F F F"
C      -46.41190000     -29.92320000     -71.03650000
C      -45.53600000     -30.30940000     -70.02200000
C      -44.17270000     -30.56600000     -70.21720000
C      -43.55970000     -30.45360000     -71.49490000
C      -44.48700000     -30.09240000     -72.52430000
C      -45.86980000     -29.79110000     -72.33440000
H      -47.46270000     -29.60340000     -70.88520000
H      -43.56190000     -31.07010000     -69.40620000
H      -44.07680000     -29.92540000     -73.46520000
H      -46.43430000     -29.34590000     -73.12740000
C      -42.11310000     -30.74750000     -71.70550000
H      -41.62590000     -30.43630000     -70.85380000
H      -41.83000000     -30.25330000     -72.66590000
C      -46.07240000     -30.31640000     -68.57590000
H      -45.41740000     -29.69560000     -68.03120000
H      -47.12720000     -29.93960000     -68.46330000
S      -41.80230000     -32.51590000     -71.81040000
S      -45.86180000     -31.94760000     -67.70910000
C      -43.27870000     -33.29880000     -72.60850000
H      -44.14460000     -32.69090000     -72.36920000
H      -43.21110000     -33.26470000     -73.70900000
C      -46.81470000     -33.17460000     -68.81730000
H      -47.48630000     -32.54590000     -69.37400000
H      -47.35660000     -33.81810000     -68.10960000
C      -45.86180000     -33.98540000     -69.70970000
H      -45.10920000     -33.29700000     -70.19170000
H      -45.27900000     -34.66860000     -69.10150000
C      -43.41780000     -34.65880000     -71.99660000
H      -43.61900000     -34.59020000     -70.95070000
H      -42.49010000     -35.33000000     -72.09570000
C      -44.56350000     -35.53370000     -72.53080000
C      -44.54800000     -36.24280000     -73.68170000
C      -45.87920000     -35.54690000     -71.87070000
H      -43.64610000     -36.34850000     -74.26070000
C      -46.78620000     -36.33820000     -72.60120000
C      -46.52240000     -34.82010000     -70.76760000
C      -47.80620000     -35.19310000     -70.69510000
S      -46.06220000     -36.98520000     -74.07270000
S      -48.40920000     -36.38710000     -71.87030000
H      -48.57710000     -34.66460000     -70.12440000
