40
Properties=species:S:1:pos:R:3 #=T CELL(abcABC):=T 1.889726e+02=T 90.00000=T Traj:=T positionsangstrom=T Step:=T 0=T Bead:=T pbc="F F F"
C      -46.28590000     -29.94590000     -71.09640000
C      -45.48950000     -30.24850000     -70.04050000
C      -44.10620000     -30.48900000     -70.22230000
C      -43.54420000     -30.32920000     -71.53410000
C      -44.35940000     -30.00380000     -72.58920000
C      -45.74560000     -29.75490000     -72.37980000
H      -47.41910000     -29.92300000     -70.99000000
H      -43.39720000     -30.74670000     -69.44390000
H      -43.90280000     -29.98150000     -73.54360000
H      -46.40660000     -29.49380000     -73.21970000
C      -42.06940000     -30.60050000     -71.84920000
H      -41.33150000     -30.16600000     -71.20380000
H      -41.82430000     -30.17070000     -72.85020000
C      -46.04200000     -30.40820000     -68.63360000
H      -45.70280000     -29.63010000     -67.93130000
H      -47.10630000     -30.10710000     -68.75400000
S      -41.67910000     -32.52350000     -71.91910000
S      -45.92880000     -32.05830000     -67.78030000
C      -43.30080000     -33.30830000     -72.42430000
H      -44.23350000     -32.78270000     -72.11870000
H      -43.25880000     -33.29040000     -73.53050000
C      -46.81270000     -33.09380000     -68.91160000
H      -47.59520000     -32.54980000     -69.48400000
H      -47.39990000     -33.85780000     -68.37030000
C      -45.85840000     -33.79560000     -69.87160000
H      -45.53250000     -33.06350000     -70.59400000
H      -44.98420000     -34.16960000     -69.32360000
C      -43.32120000     -34.82890000     -72.04630000
H      -43.27580000     -34.85080000     -70.94560000
H      -42.42140000     -35.14250000     -72.47380000
C      -44.63890000     -35.53030000     -72.49720000
C      -44.61980000     -36.21650000     -73.70360000
C      -45.93430000     -35.53130000     -71.80910000
H      -43.85620000     -36.30810000     -74.45360000
C      -46.87180000     -36.26630000     -72.51090000
C      -46.56270000     -34.85860000     -70.69560000
C      -47.85260000     -35.27450000     -70.48780000
S      -46.17940000     -37.06740000     -73.89390000
S      -48.46380000     -36.37980000     -71.77550000
H      -48.53740000     -35.15960000     -69.58600000
