40
Properties=species:S:1:pos:R:3 #=T CELL(abcABC):=T 1.889726e+02=T 90.00000=T Traj:=T positionsangstrom=T Step:=T 0=T Bead:=T pbc="F F F"
C      -46.62560000     -30.10040000     -70.87970000
C      -45.74360000     -30.41010000     -69.82990000
C      -44.37130000     -30.53750000     -70.14660000
C      -43.96300000     -30.39520000     -71.53210000
C      -44.88650000     -30.11570000     -72.53840000
C      -46.22380000     -29.82960000     -72.21800000
H      -47.63750000     -29.97980000     -70.55530000
H      -43.69970000     -30.90460000     -69.38940000
H      -44.62640000     -29.94010000     -73.58680000
H      -47.00060000     -29.53260000     -72.94550000
C      -42.52010000     -30.65500000     -71.93580000
H      -41.92050000     -29.92880000     -71.51330000
H      -42.56100000     -30.59710000     -73.02810000
C      -46.36170000     -30.46440000     -68.48980000
H      -45.95270000     -29.61310000     -67.95430000
H      -47.42750000     -30.50040000     -68.53710000
S      -41.98520000     -32.37670000     -71.37100000
S      -45.85340000     -32.08110000     -67.59100000
C      -43.09300000     -33.24830000     -72.54900000
H      -44.12600000     -32.82090000     -72.50120000
H      -42.86110000     -33.04020000     -73.59010000
C      -46.47930000     -33.36430000     -68.84810000
H      -47.39520000     -32.91150000     -69.22180000
H      -46.77050000     -34.34640000     -68.34010000
C      -45.71160000     -33.68620000     -70.11300000
H      -45.34370000     -32.80900000     -70.74720000
H      -44.72810000     -34.19570000     -69.77100000
C      -43.15280000     -34.72570000     -72.13760000
H      -42.89130000     -34.76400000     -70.99390000
H      -42.27410000     -35.23750000     -72.56760000
C      -44.37990000     -35.48920000     -72.52850000
C      -44.26440000     -36.40830000     -73.57660000
C      -45.78100000     -35.41230000     -72.08820000
H      -43.31610000     -36.68500000     -74.07960000
C      -46.64660000     -36.30440000     -72.76250000
C      -46.42180000     -34.70420000     -70.96410000
C      -47.78290000     -34.93280000     -70.88480000
S      -45.76970000     -37.27480000     -73.99490000
S      -48.24490000     -36.15020000     -72.12240000
H      -48.47370000     -34.66890000     -70.12660000
