40
Properties=species:S:1:pos:R:3 #=T CELL(abcABC):=T 1.889726e+02=T 90.00000=T Traj:=T positionsangstrom=T Step:=T 0=T Bead:=T pbc="F F F"
C      -43.28960000     -33.45470000     -69.56980000
C      -43.16740000     -32.32870000     -70.41630000
C      -44.29110000     -31.52820000     -70.48830000
C      -45.37570000     -31.62870000     -69.64870000
C      -45.39620000     -32.75150000     -68.81730000
C      -44.46490000     -33.71440000     -68.86490000
H      -42.50690000     -34.24560000     -69.62290000
H      -44.28000000     -30.54670000     -71.10570000
H      -46.33690000     -32.92380000     -68.27170000
H      -44.57720000     -34.61490000     -68.40730000
C      -46.48280000     -30.61320000     -69.66660000
H      -46.32380000     -29.75660000     -70.35600000
H      -46.52140000     -30.06280000     -68.68690000
C      -41.96710000     -32.09840000     -71.33090000
H      -41.94890000     -31.06360000     -71.53530000
H      -41.10510000     -32.53470000     -70.95620000
S      -48.21690000     -31.09130000     -69.93700000
S      -42.08560000     -33.06440000     -72.96430000
C      -48.39090000     -31.42040000     -71.73340000
H      -49.29780000     -32.06050000     -71.78100000
H      -48.60290000     -30.54730000     -72.25820000
C      -43.59740000     -32.20660000     -73.58620000
H      -43.27690000     -31.56940000     -74.40400000
H      -44.04340000     -31.63810000     -72.78880000
C      -44.54260000     -33.25190000     -74.25150000
H      -45.46500000     -32.78080000     -74.57590000
H      -44.08520000     -33.73530000     -75.14470000
C      -47.19430000     -32.10410000     -72.33870000
H      -46.24620000     -31.54230000     -72.09390000
H      -47.33250000     -32.08380000     -73.41580000
C      -47.01450000     -33.54510000     -71.89070000
C      -47.71070000     -34.09650000     -70.82230000
C      -45.93970000     -34.47660000     -72.24180000
H      -48.53140000     -33.59620000     -70.36820000
C      -45.83540000     -35.60000000     -71.41340000
C      -44.95500000     -34.45700000     -73.32020000
C      -44.16450000     -35.57210000     -73.27620000
S      -47.09060000     -35.56380000     -70.10110000
S      -44.54290000     -36.68680000     -71.88370000
H      -43.38180000     -35.71760000     -73.94090000
