40
Properties=species:S:1:pos:R:3 #=T CELL(abcABC):=T 1.889726e+02=T 90.00000=T Traj:=T positionsangstrom=T Step:=T 0=T Bead:=T pbc="F F F"
C      -43.65870000     -33.39760000     -69.43170000
C      -43.38140000     -32.31130000     -70.28830000
C      -44.29460000     -31.21720000     -70.20280000
C      -45.38150000     -31.28530000     -69.32030000
C      -45.48260000     -32.34650000     -68.42700000
C      -44.58690000     -33.41720000     -68.39230000
H      -43.03690000     -34.25040000     -69.67160000
H      -44.11750000     -30.41560000     -70.82130000
H      -46.12510000     -32.28080000     -67.61700000
H      -44.68140000     -34.24910000     -67.68370000
C      -46.45500000     -30.26800000     -69.45260000
H      -46.16790000     -29.44320000     -70.11200000
H      -46.79860000     -29.93530000     -68.49650000
C      -42.14510000     -32.10490000     -71.09390000
H      -41.95260000     -31.09120000     -71.21200000
H      -41.36850000     -32.42240000     -70.40210000
S      -48.06120000     -31.00710000     -69.94190000
S      -42.11060000     -32.91000000     -72.75970000
C      -48.17300000     -31.48250000     -71.81700000
H      -49.10390000     -32.04720000     -71.91440000
H      -48.18190000     -30.44750000     -72.36580000
C      -43.64860000     -32.20870000     -73.51880000
H      -43.32800000     -31.45210000     -74.26810000
H      -44.13760000     -31.54290000     -72.77540000
C      -44.58520000     -33.24770000     -74.23510000
H      -45.51880000     -32.79220000     -74.46390000
H      -44.20590000     -33.58590000     -75.15830000
C      -46.95780000     -32.32070000     -72.38470000
H      -46.00680000     -31.91980000     -72.14560000
H      -46.97130000     -32.27290000     -73.49760000
C      -46.85630000     -33.72180000     -71.89430000
C      -47.70920000     -34.29110000     -71.00530000
C      -45.84090000     -34.59370000     -72.36290000
H      -48.53140000     -33.79990000     -70.46850000
C      -45.90240000     -35.86920000     -71.75590000
C      -44.80720000     -34.45800000     -73.39260000
C      -44.06860000     -35.59220000     -73.42310000
S      -47.13010000     -35.91970000     -70.46750000
S      -44.58820000     -36.87940000     -72.27360000
H      -43.24030000     -35.72410000     -74.16790000
