40
Properties=species:S:1:pos:R:3 #=T CELL(abcABC):=T 1.889726e+02=T 90.00000=T Traj:=T positionsangstrom=T Step:=T 0=T Bead:=T pbc="F F F"
C      -43.20810000     -32.99070000     -68.75330000
C      -43.11930000     -31.96250000     -69.72780000
C      -44.16130000     -31.06060000     -69.90810000
C      -45.35310000     -31.24180000     -69.19090000
C      -45.41000000     -32.26320000     -68.22900000
C      -44.34620000     -33.10080000     -67.96280000
H      -42.31620000     -33.58550000     -68.62020000
H      -44.13800000     -30.27210000     -70.62460000
H      -46.34130000     -32.18240000     -67.70210000
H      -44.43910000     -33.94580000     -67.28210000
C      -46.52780000     -30.33990000     -69.43500000
H      -46.35950000     -29.51590000     -70.09150000
H      -46.99920000     -29.86920000     -68.52250000
C      -41.85810000     -31.98930000     -70.58430000
H      -41.67820000     -30.96180000     -71.00050000
H      -40.99560000     -32.15310000     -69.93110000
S      -47.96530000     -31.38090000     -70.04090000
S      -42.13240000     -33.22330000     -71.92360000
C      -47.95590000     -31.20470000     -71.93010000
H      -48.93600000     -31.47460000     -72.22230000
H      -47.72920000     -30.10990000     -72.20140000
C      -43.24060000     -32.29640000     -73.10900000
H      -42.70130000     -31.51620000     -73.67600000
H      -44.04050000     -31.90920000     -72.42890000
C      -43.99890000     -33.29620000     -74.08510000
H      -44.58260000     -32.54470000     -74.67540000
H      -43.24020000     -33.74960000     -74.71960000
C      -46.85400000     -32.13060000     -72.61590000
H      -45.85870000     -31.66100000     -72.51710000
H      -46.94030000     -32.04120000     -73.70770000
C      -46.95740000     -33.64400000     -72.30260000
C      -48.07770000     -34.21910000     -71.71080000
C      -45.88440000     -34.52010000     -72.62520000
H      -48.94770000     -33.75800000     -71.43520000
C      -46.26010000     -35.83790000     -72.21470000
C      -44.64460000     -34.44530000     -73.36290000
C      -44.08670000     -35.67640000     -73.39530000
S      -47.71560000     -35.94000000     -71.33040000
S      -44.94940000     -36.96620000     -72.67830000
H      -43.19580000     -35.96210000     -73.96630000
