40
Properties=species:S:1:pos:R:3 #=T CELL(abcABC):=T 1.889726e+02=T 90.00000=T Traj:=T positionsangstrom=T Step:=T 0=T Bead:=T pbc="F F F"
C      -43.47760000     -33.40310000     -69.47070000
C      -43.26880000     -32.28570000     -70.30210000
C      -44.21710000     -31.28410000     -70.30010000
C      -45.42540000     -31.47170000     -69.53480000
C      -45.50030000     -32.55740000     -68.68220000
C      -44.60610000     -33.54370000     -68.66060000
H      -42.65870000     -34.05180000     -69.37220000
H      -44.13160000     -30.50550000     -71.02670000
H      -46.38560000     -32.65030000     -68.12210000
H      -44.74270000     -34.36540000     -68.05020000
C      -46.41780000     -30.38770000     -69.53270000
H      -46.18100000     -29.73000000     -70.34820000
H      -46.27200000     -29.74050000     -68.59470000
C      -42.09590000     -32.16970000     -71.16580000
H      -41.72990000     -31.14340000     -71.43830000
H      -41.11820000     -32.63140000     -70.78050000
S      -48.14530000     -31.12820000     -69.84590000
S      -42.19250000     -33.00260000     -72.85140000
C      -48.17900000     -31.19220000     -71.70870000
H      -49.19470000     -31.42130000     -72.04930000
H      -47.94340000     -30.18860000     -72.04660000
C      -43.65340000     -32.25830000     -73.72770000
H      -43.31900000     -31.59300000     -74.53310000
H      -44.24300000     -31.62180000     -73.02960000
C      -44.59180000     -33.44620000     -74.42700000
H      -45.50610000     -32.95930000     -74.79130000
H      -43.97460000     -33.83450000     -75.32960000
C      -47.21180000     -32.23640000     -72.47000000
H      -46.24530000     -31.70400000     -72.60800000
H      -47.58790000     -32.42570000     -73.46770000
C      -46.86870000     -33.57220000     -71.84520000
C      -47.55340000     -34.16050000     -70.79940000
C      -45.79510000     -34.40890000     -72.24910000
H      -48.48380000     -33.80690000     -70.37070000
C      -45.69390000     -35.59180000     -71.46920000
C      -44.90150000     -34.52120000     -73.36910000
C      -44.09210000     -35.62580000     -73.24180000
S      -47.07740000     -35.79700000     -70.40640000
S      -44.63150000     -36.77500000     -72.04540000
H      -43.36850000     -35.93110000     -73.97780000
