40
Properties=species:S:1:pos:R:3 #=T CELL(abcABC):=T 1.889726e+02=T 90.00000=T Traj:=T positionsangstrom=T Step:=T 0=T Bead:=T pbc="F F F"
C      -45.97830000     -36.19710000     -68.54800000
C      -46.87180000     -35.24270000     -69.07300000
C      -47.31750000     -35.26830000     -70.40230000
C      -46.98710000     -36.39310000     -71.17560000
C      -46.14030000     -37.43130000     -70.64410000
C      -45.59160000     -37.29120000     -69.35450000
H      -45.55520000     -36.06720000     -67.51330000
H      -48.07670000     -34.52840000     -70.76620000
H      -45.94760000     -38.22490000     -71.36020000
H      -44.84880000     -37.99200000     -69.04310000
C      -47.62370000     -36.61000000     -72.56140000
H      -48.56510000     -36.04420000     -72.72430000
H      -47.95950000     -37.66750000     -72.66250000
C      -47.30310000     -33.98290000     -68.21460000
H      -48.35420000     -33.81830000     -68.40560000
H      -47.18720000     -34.29640000     -67.19310000
S      -46.33830000     -36.28800000     -73.90060000
S      -46.24470000     -32.54260000     -68.48830000
C      -45.06110000     -35.08700000     -73.10490000
H      -44.76180000     -35.50700000     -72.22380000
H      -44.29570000     -35.10560000     -73.73070000
C      -44.47530000     -33.19910000     -68.51350000
H      -44.51430000     -34.18300000     -67.97300000
H      -43.72790000     -32.59290000     -67.93920000
C      -44.05600000     -33.22270000     -69.95140000
H      -43.14730000     -33.73940000     -70.11220000
H      -44.75470000     -33.78480000     -70.58030000
C      -45.88240000     -33.76070000     -72.94940000
H      -46.33490000     -33.80370000     -71.98930000
H      -46.67910000     -33.70410000     -73.71180000
C      -45.17600000     -32.31340000     -73.02090000
C      -45.19880000     -31.64010000     -74.20710000
C      -44.37990000     -31.65330000     -72.01130000
H      -45.61120000     -31.99300000     -75.14040000
C      -43.78400000     -30.42540000     -72.49940000
C      -43.89370000     -31.89800000     -70.61950000
C      -43.10670000     -30.84970000     -70.18870000
S      -44.22330000     -30.11940000     -74.21770000
S      -42.94670000     -29.51820000     -71.31550000
H      -42.84670000     -30.56030000     -69.15020000
