40
Properties=species:S:1:pos:R:3 #=T CELL(abcABC):=T 1.889726e+02=T 90.00000=T Traj:=T positionsangstrom=T Step:=T 0=T Bead:=T pbc="F F F"
C      -45.90950000     -31.08430000     -68.19620000
C      -45.72360000     -31.30160000     -69.57540000
C      -44.44900000     -31.64920000     -69.99910000
C      -43.44010000     -31.83820000     -69.08600000
C      -43.64170000     -31.66900000     -67.70690000
C      -44.90440000     -31.28310000     -67.25770000
H      -46.84190000     -30.83280000     -67.79840000
H      -44.28190000     -32.03010000     -70.99940000
H      -42.85980000     -31.92650000     -67.04990000
H      -45.27600000     -31.39710000     -66.19250000
C      -42.09880000     -32.27450000     -69.61750000
H      -41.37120000     -32.52400000     -68.90070000
H      -41.79880000     -31.44500000     -70.19140000
C      -46.93760000     -31.21050000     -70.51370000
H      -47.23260000     -30.20370000     -70.67660000
H      -46.79520000     -31.68590000     -71.50150000
S      -42.18850000     -33.61540000     -70.92670000
S      -48.39360000     -32.10590000     -69.71170000
C      -43.19170000     -34.85190000     -70.10650000
H      -42.44330000     -35.43560000     -69.51650000
H      -43.83760000     -34.42760000     -69.37180000
C      -48.48670000     -33.88340000     -70.11940000
H      -49.35430000     -34.11160000     -70.90740000
H      -48.77540000     -34.47020000     -69.25090000
C      -47.11020000     -34.37180000     -70.66860000
H      -46.31520000     -33.85990000     -70.15060000
H      -47.07790000     -35.39570000     -70.36090000
C      -44.03050000     -35.82380000     -71.04380000
H      -44.91680000     -36.22850000     -70.48760000
H      -43.45220000     -36.73760000     -71.17560000
C      -44.42210000     -35.30550000     -72.34730000
C      -43.56550000     -35.42630000     -73.36860000
C      -45.71260000     -34.73060000     -72.81460000
H      -42.53120000     -35.80990000     -73.14940000
C      -45.73720000     -34.54960000     -74.16420000
C      -46.84170000     -34.16550000     -72.16040000
C      -47.70130000     -33.57010000     -73.06920000
S      -44.19660000     -34.89040000     -74.92610000
S      -47.11580000     -33.59800000     -74.68440000
H      -48.54590000     -33.03570000     -72.77240000
