40
Properties=species:S:1:pos:R:3 #=T CELL(abcABC):=T 1.889726e+02=T 90.00000=T Traj:=T positionsangstrom=T Step:=T 0=T Bead:=T pbc="F F F"
C      -46.07080000     -31.33910000     -68.09110000
C      -45.94700000     -31.50570000     -69.49350000
C      -44.70170000     -31.73050000     -70.07860000
C      -43.55350000     -31.68020000     -69.23730000
C      -43.72320000     -31.34910000     -67.88420000
C      -44.95760000     -31.24120000     -67.24840000
H      -47.09420000     -31.28280000     -67.67260000
H      -44.64690000     -31.69690000     -71.20490000
H      -42.79350000     -31.55060000     -67.29590000
H      -44.98620000     -30.97980000     -66.23600000
C      -42.19420000     -31.88540000     -69.83280000
H      -41.41270000     -31.81060000     -69.10660000
H      -41.99230000     -31.09830000     -70.61420000
C      -47.08220000     -31.20160000     -70.41060000
H      -47.45750000     -30.14530000     -70.28950000
H      -46.71760000     -31.11880000     -71.38620000
S      -42.02210000     -33.44380000     -70.82860000
S      -48.63790000     -32.19910000     -70.17900000
C      -43.46200000     -34.50820000     -70.20910000
H      -43.41590000     -34.96930000     -69.24010000
H      -44.37290000     -33.89520000     -70.25390000
C      -48.15780000     -33.94920000     -69.78950000
H      -49.05920000     -34.48060000     -70.17250000
H      -47.99280000     -34.09060000     -68.61690000
C      -46.88290000     -34.50390000     -70.41630000
H      -45.99300000     -34.10500000     -69.88050000
H      -46.86120000     -35.60040000     -70.27100000
C      -43.56610000     -35.79440000     -71.14650000
H      -44.26620000     -36.43920000     -70.65520000
H      -42.54960000     -36.29920000     -71.30830000
C      -44.16190000     -35.40540000     -72.44190000
C      -43.47870000     -35.60580000     -73.63510000
C      -45.46100000     -34.78700000     -72.62790000
H      -42.45010000     -35.95920000     -73.77730000
C      -45.60070000     -34.38900000     -74.01150000
C      -46.69430000     -34.37750000     -71.90280000
C      -47.61780000     -33.73200000     -72.75270000
S      -44.33530000     -34.90740000     -75.03170000
S      -47.15140000     -33.74210000     -74.43510000
H      -48.65920000     -33.44450000     -72.51140000
