40
Properties=species:S:1:pos:R:3 #=T CELL(abcABC):=T 1.889726e+02=T 90.00000=T Traj:=T positionsangstrom=T Step:=T 0=T Bead:=T pbc="F F F"
C      -45.95010000     -31.21220000     -68.15090000
C      -45.80740000     -31.31620000     -69.51990000
C      -44.56760000     -31.54240000     -70.08190000
C      -43.48470000     -31.71090000     -69.23700000
C      -43.58370000     -31.52860000     -67.87910000
C      -44.84070000     -31.24860000     -67.29470000
H      -46.89320000     -31.02520000     -67.66800000
H      -44.45160000     -31.69160000     -71.21270000
H      -42.68530000     -31.36640000     -67.35160000
H      -44.99160000     -31.03690000     -66.26830000
C      -42.14330000     -32.13260000     -69.71340000
H      -41.56800000     -32.48490000     -68.82130000
H      -41.49270000     -31.27510000     -70.01160000
C      -46.94080000     -31.41930000     -70.50440000
H      -47.30320000     -30.43740000     -70.75400000
H      -46.54830000     -31.97460000     -71.42980000
S      -42.14210000     -33.54180000     -70.86160000
S      -48.53750000     -32.16160000     -69.99670000
C      -43.39070000     -34.60450000     -70.06660000
H      -42.97760000     -35.13140000     -69.18980000
H      -44.22020000     -33.94270000     -69.71380000
C      -48.18190000     -33.95730000     -69.77440000
H      -49.10940000     -34.48800000     -70.00090000
H      -48.01580000     -34.08060000     -68.78260000
C      -46.95200000     -34.52670000     -70.50820000
H      -46.13170000     -34.04590000     -70.02510000
H      -46.80850000     -35.59600000     -70.28770000
C      -43.89820000     -35.73850000     -71.07970000
H      -44.72850000     -36.21730000     -70.61450000
H      -43.11820000     -36.52240000     -71.15820000
C      -44.35440000     -35.30650000     -72.42770000
C      -43.55470000     -35.57430000     -73.51950000
C      -45.57210000     -34.65120000     -72.75360000
H      -42.53680000     -36.05000000     -73.57420000
C      -45.65900000     -34.37370000     -74.14610000
C      -46.79210000     -34.31520000     -72.01550000
C      -47.78640000     -33.75740000     -72.84650000
S      -44.24920000     -34.99970000     -75.00450000
S      -47.17510000     -33.55960000     -74.52840000
H      -48.75420000     -33.37340000     -72.58870000
