40
Properties=species:S:1:pos:R:3 #=T CELL(abcABC):=T 1.889726e+02=T 90.00000=T Traj:=T positionsangstrom=T Step:=T 0=T Bead:=T pbc="F F F"
C      -42.11230000     -31.94680000     -72.57110000
C      -43.40430000     -31.76950000     -72.10530000
C      -44.41970000     -32.56860000     -72.53460000
C      -44.13580000     -33.55310000     -73.52780000
C      -42.94380000     -33.41510000     -74.23050000
C      -41.92380000     -32.66860000     -73.77590000
H      -41.22280000     -31.54090000     -71.98020000
H      -45.38610000     -32.46820000     -72.14250000
H      -42.73550000     -34.04010000     -75.15360000
H      -40.98710000     -32.66590000     -74.26110000
C      -45.22490000     -34.50940000     -73.97400000
H      -45.18550000     -34.71360000     -74.99820000
H      -46.19530000     -34.18130000     -73.57150000
C      -43.71360000     -30.88120000     -70.96870000
H      -43.44130000     -29.81090000     -71.18480000
H      -44.83870000     -30.99030000     -70.95080000
S      -44.92280000     -36.26030000     -73.28590000
S      -43.05830000     -31.36010000     -69.29590000
C      -44.60180000     -35.98970000     -71.46640000
H      -43.75050000     -36.68840000     -71.19630000
H      -44.15440000     -34.97830000     -71.42670000
C      -43.43250000     -33.14420000     -69.09160000
H      -42.77260000     -33.49700000     -68.22110000
H      -43.22500000     -33.66870000     -70.06700000
C      -44.82060000     -33.61480000     -68.52690000
H      -44.74190000     -34.67560000     -68.53540000
H      -44.81930000     -33.21910000     -67.40280000
C      -45.80090000     -36.22920000     -70.49570000
H      -45.57170000     -36.31480000     -69.40990000
H      -46.22480000     -37.22210000     -70.74260000
C      -46.80970000     -35.15550000     -70.73250000
C      -47.86870000     -35.35420000     -71.61570000
C      -46.75400000     -33.77160000     -70.23220000
H      -47.91440000     -36.28840000     -72.15840000
C      -47.76960000     -32.98930000     -70.79480000
C      -45.94900000     -33.06620000     -69.23920000
C      -46.37740000     -31.73690000     -69.10780000
S      -48.74350000     -33.82140000     -71.94970000
S      -47.81750000     -31.30190000     -70.10950000
H      -45.91510000     -31.01330000     -68.45830000
