40
Properties=species:S:1:pos:R:3 #=T CELL(abcABC):=T 1.889726e+02=T 90.00000=T Traj:=T positionsangstrom=T Step:=T 0=T Bead:=T pbc="F F F"
C      -45.75550000     -31.08040000     -67.98980000
C      -45.71550000     -31.25980000     -69.40590000
C      -44.51600000     -31.77930000     -69.92180000
C      -43.39950000     -32.00820000     -69.11720000
C      -43.50950000     -31.80290000     -67.74020000
C      -44.69640000     -31.42530000     -67.14190000
H      -46.64580000     -30.65870000     -67.48610000
H      -44.43840000     -31.88090000     -70.96770000
H      -42.60600000     -32.14550000     -67.12950000
H      -44.75570000     -31.18130000     -66.05840000
C      -42.16020000     -32.56040000     -69.69830000
H      -41.54250000     -32.98470000     -68.86200000
H      -41.53240000     -31.72850000     -70.16150000
C      -46.96140000     -31.05370000     -70.20520000
H      -47.09330000     -29.93110000     -70.37770000
H      -46.89450000     -31.42870000     -71.19320000
S      -42.22610000     -33.85730000     -71.07370000
S      -48.53100000     -31.84050000     -69.54250000
C      -43.31160000     -34.99320000     -70.09450000
H      -42.67420000     -35.57860000     -69.40960000
H      -43.99920000     -34.37660000     -69.49950000
C      -48.53700000     -33.56760000     -70.27280000
H      -49.26150000     -33.52630000     -71.09230000
H      -49.04570000     -34.14990000     -69.48120000
C      -47.25320000     -34.24250000     -70.69450000
H      -46.44720000     -34.08100000     -69.92410000
H      -47.46140000     -35.34180000     -70.66650000
C      -44.09610000     -35.90710000     -71.08490000
H      -45.09250000     -36.04780000     -70.62080000
H      -43.63990000     -36.91530000     -71.22970000
C      -44.39480000     -35.32490000     -72.44630000
C      -43.56790000     -35.50080000     -73.51200000
C      -45.60830000     -34.58370000     -72.80370000
H      -42.62750000     -36.00080000     -73.38650000
C      -45.56970000     -34.22760000     -74.13910000
C      -46.81870000     -34.17250000     -72.17460000
C      -47.74680000     -33.73890000     -73.07100000
S      -44.14170000     -34.78290000     -74.98650000
S      -47.07880000     -33.64630000     -74.76280000
H      -48.71220000     -33.37250000     -72.79040000
