40
Properties=species:S:1:pos:R:3 #=T CELL(abcABC):=T 1.889726e+02=T 90.00000=T Traj:=T positionsangstrom=T Step:=T 0=T Bead:=T pbc="F F F"
C      -40.96070000     -34.94560000     -69.60390000
C      -42.23570000     -34.92970000     -70.30930000
C      -42.57710000     -33.71010000     -70.93970000
C      -41.83450000     -32.57180000     -70.78870000
C      -40.59430000     -32.63860000     -70.11000000
C      -40.19760000     -33.74460000     -69.43690000
H      -40.62600000     -35.93630000     -69.26870000
H      -43.51550000     -33.63270000     -71.46720000
H      -39.93570000     -31.72560000     -70.12650000
H      -39.26320000     -33.78100000     -68.85380000
C      -42.15400000     -31.24060000     -71.48950000
H      -42.43510000     -31.48040000     -72.53250000
H      -41.17610000     -30.65440000     -71.54300000
C      -43.04780000     -36.19210000     -70.30990000
H      -43.40680000     -36.46040000     -71.26200000
H      -42.48210000     -36.98920000     -69.90360000
S      -43.46160000     -30.12470000     -70.77630000
S      -44.55980000     -35.86210000     -69.13590000
C      -44.89430000     -31.26830000     -70.70320000
H      -44.75490000     -32.18430000     -70.19040000
H      -45.65600000     -30.70730000     -70.15110000
C      -46.02070000     -35.40600000     -70.17170000
H      -46.39650000     -34.48010000     -69.75430000
H      -46.68840000     -36.21010000     -70.07970000
C      -45.65130000     -35.15840000     -71.65440000
H      -44.88960000     -34.35320000     -71.72520000
H      -45.30210000     -36.12410000     -72.07860000
C      -45.45700000     -31.55400000     -72.13030000
H      -44.96080000     -32.35510000     -72.71090000
H      -45.37470000     -30.61790000     -72.72190000
C      -46.98410000     -31.92840000     -72.18260000
C      -47.97850000     -31.01380000     -72.36730000
C      -47.50290000     -33.29710000     -72.39590000
H      -47.72820000     -29.95970000     -72.23420000
C      -48.91200000     -33.29060000     -72.63970000
C      -46.97930000     -34.66150000     -72.28620000
C      -47.89790000     -35.57100000     -72.60840000
S      -49.60370000     -31.68280000     -72.73510000
S      -49.43860000     -34.90670000     -73.15460000
H      -47.94170000     -36.61570000     -72.43880000
