40
Properties=species:S:1:pos:R:3 #=T CELL(abcABC):=T 1.889726e+02=T 90.00000=T Traj:=T positionsangstrom=T Step:=T 0=T Bead:=T pbc="F F F"
C      -41.42310000     -34.62870000     -68.90690000
C      -41.95480000     -34.96300000     -70.18950000
C      -42.16380000     -33.99420000     -71.13310000
C      -41.83740000     -32.63080000     -70.82530000
C      -41.33570000     -32.32910000     -69.53890000
C      -41.07150000     -33.34060000     -68.59510000
H      -41.38170000     -35.45820000     -68.15240000
H      -42.53890000     -34.22150000     -72.14570000
H      -41.15560000     -31.33610000     -69.25320000
H      -40.91750000     -33.13290000     -67.54940000
C      -42.06880000     -31.57230000     -71.79700000
H      -42.43360000     -31.98130000     -72.78600000
H      -41.17810000     -30.92900000     -71.98420000
C      -42.51040000     -36.30500000     -70.41550000
H      -42.47920000     -36.55160000     -71.41300000
H      -41.92270000     -37.08610000     -69.92230000
S      -43.44250000     -30.27090000     -71.27510000
S      -44.27900000     -36.64190000     -69.67190000
C      -44.90350000     -31.35330000     -71.02200000
H      -44.72680000     -32.08930000     -70.21840000
H      -45.66230000     -30.57420000     -70.63510000
C      -45.23020000     -35.18780000     -70.38290000
H      -44.59690000     -34.24070000     -70.45120000
H      -45.97640000     -34.81970000     -69.66200000
C      -45.94930000     -35.43090000     -71.73770000
H      -45.29770000     -35.00420000     -72.54470000
H      -46.05980000     -36.47780000     -71.99690000
C      -45.31200000     -31.94470000     -72.44170000
H      -44.66900000     -32.79160000     -72.60220000
H      -45.06600000     -31.12140000     -73.07620000
C      -46.79100000     -32.09750000     -72.61580000
C      -47.52690000     -30.97480000     -72.98400000
C      -47.58920000     -33.26170000     -72.34800000
H      -47.17330000     -30.03300000     -73.30950000
C      -48.94830000     -33.04940000     -72.59450000
C      -47.29270000     -34.67530000     -71.92190000
C      -48.48190000     -35.37260000     -71.80450000
S      -49.24010000     -31.30450000     -72.94340000
S      -49.93300000     -34.36340000     -72.23380000
H      -48.59620000     -36.40420000     -71.49070000
