40
Properties=species:S:1:pos:R:3 #=T CELL(abcABC):=T 1.889726e+02=T 90.00000=T Traj:=T positionsangstrom=T Step:=T 0=T Bead:=T pbc="F F F"
C      -43.72950000     -36.27050000     -69.41170000
C      -45.12190000     -36.19240000     -69.43040000
C      -45.82110000     -36.47800000     -70.62560000
C      -45.14250000     -36.72940000     -71.77600000
C      -43.71600000     -36.73130000     -71.80850000
C      -43.03230000     -36.52950000     -70.61760000
H      -43.27970000     -36.22430000     -68.38820000
H      -46.85540000     -36.34790000     -70.71110000
H      -43.13940000     -36.75920000     -72.69750000
H      -41.97120000     -36.47780000     -70.46390000
C      -45.92570000     -37.00340000     -73.05910000
H      -46.94090000     -36.87730000     -72.85340000
H      -45.69720000     -37.93030000     -73.45270000
C      -45.97370000     -36.05620000     -68.14850000
H      -47.04200000     -36.20370000     -68.36350000
H      -45.71790000     -36.67750000     -67.36770000
S      -45.42770000     -35.74790000     -74.36450000
S      -45.58630000     -34.38800000     -67.40140000
C      -45.23110000     -34.14410000     -73.38730000
H      -44.79350000     -34.30050000     -72.42230000
H      -44.59730000     -33.49930000     -73.99830000
C      -44.92280000     -33.47410000     -68.80490000
H      -44.08450000     -34.04190000     -69.30350000
H      -44.21610000     -32.72030000     -68.43620000
C      -45.88170000     -32.89940000     -69.86150000
H      -46.18930000     -33.65560000     -70.59710000
H      -46.87850000     -32.74310000     -69.41020000
C      -46.58720000     -33.34940000     -73.19510000
H      -47.08780000     -33.80220000     -72.34470000
H      -47.19360000     -33.38190000     -74.11870000
C      -46.24860000     -31.86280000     -73.01690000
C      -46.35790000     -30.93860000     -74.02830000
C      -45.69290000     -31.27340000     -71.84390000
H      -46.87070000     -31.03400000     -74.90300000
C      -45.34300000     -29.95710000     -72.06330000
C      -45.41270000     -31.58860000     -70.45360000
C      -44.76390000     -30.63290000     -69.78680000
S      -45.82480000     -29.33200000     -73.63700000
S      -44.57610000     -29.13930000     -70.71530000
H      -44.48460000     -30.74980000     -68.77940000
