40
Properties=species:S:1:pos:R:3 #=T CELL(abcABC):=T 1.889726e+02=T 90.00000=T Traj:=T positionsangstrom=T Step:=T 0=T Bead:=T pbc="F F F"
C      -42.36690000     -34.75270000     -68.80600000
C      -42.54990000     -34.91050000     -70.16590000
C      -42.26260000     -33.85080000     -71.03040000
C      -41.97720000     -32.59680000     -70.56040000
C      -41.65710000     -32.42640000     -69.22290000
C      -41.94870000     -33.49290000     -68.33850000
H      -42.63570000     -35.53380000     -68.10340000
H      -42.27080000     -33.95980000     -72.13350000
H      -41.35420000     -31.43150000     -68.85840000
H      -41.81710000     -33.31560000     -67.26330000
C      -41.75690000     -31.45510000     -71.52970000
H      -41.61980000     -31.94080000     -72.53030000
H      -40.84610000     -30.88300000     -71.31330000
C      -42.86320000     -36.28380000     -70.78070000
H      -42.88870000     -36.17560000     -71.88060000
H      -41.95560000     -36.80480000     -70.52800000
S      -43.19480000     -30.21710000     -71.56720000
S      -44.33040000     -37.16530000     -70.15850000
C      -44.58680000     -31.36000000     -71.41900000
H      -44.41060000     -32.19610000     -70.70640000
H      -45.33920000     -30.85810000     -70.87610000
C      -45.48180000     -35.74610000     -70.22360000
H      -45.15440000     -35.02020000     -69.43330000
H      -46.46130000     -36.16130000     -69.84250000
C      -45.60260000     -34.99100000     -71.56990000
H      -44.89550000     -34.16700000     -71.55270000
H      -45.34750000     -35.60020000     -72.43720000
C      -45.16320000     -31.76360000     -72.81250000
H      -44.59910000     -32.56570000     -73.25400000
H      -44.89230000     -30.98450000     -73.52340000
C      -46.66040000     -31.96130000     -72.82740000
C      -47.53860000     -30.99630000     -73.38090000
C      -47.39440000     -33.14920000     -72.31250000
H      -47.30380000     -29.98170000     -73.61090000
C      -48.75300000     -32.88300000     -72.37540000
C      -47.04070000     -34.45770000     -71.69440000
C      -48.23470000     -35.07630000     -71.33550000
S      -49.19650000     -31.38620000     -73.07450000
S      -49.62110000     -34.18950000     -71.66120000
H      -48.33780000     -36.08500000     -70.97510000
