40
Properties=species:S:1:pos:R:3 #=T CELL(abcABC):=T 1.889726e+02=T 90.00000=T Traj:=T positionsangstrom=T Step:=T 0=T Bead:=T pbc="F F F"
C      -43.82290000     -36.48260000     -69.40450000
C      -45.24330000     -36.38220000     -69.45090000
C      -45.85730000     -36.69130000     -70.66440000
C      -45.07440000     -36.78870000     -71.92450000
C      -43.70930000     -36.61610000     -71.80860000
C      -43.06240000     -36.59020000     -70.56020000
H      -43.23580000     -36.29610000     -68.48030000
H      -46.93380000     -36.90400000     -70.47770000
H      -43.15690000     -36.71060000     -72.69910000
H      -41.99670000     -36.68210000     -70.36100000
C      -45.93540000     -36.75710000     -73.20010000
H      -47.05060000     -36.65250000     -72.86380000
H      -45.88390000     -37.77440000     -73.73690000
C      -45.93140000     -36.19690000     -68.14560000
H      -46.98130000     -36.30760000     -68.35530000
H      -45.62980000     -36.85050000     -67.26550000
S      -45.44370000     -35.53590000     -74.42670000
S      -45.66160000     -34.56050000     -67.36650000
C      -45.24800000     -34.01280000     -73.57500000
H      -44.54960000     -34.15990000     -72.72490000
H      -44.71700000     -33.31560000     -74.23730000
C      -44.92850000     -33.30390000     -68.63830000
H      -44.18270000     -33.86620000     -69.13270000
H      -44.63290000     -32.50190000     -68.01490000
C      -45.89020000     -32.78760000     -69.66500000
H      -46.08500000     -33.54750000     -70.38910000
H      -46.80220000     -32.50400000     -69.13750000
C      -46.63430000     -33.34370000     -73.09380000
H      -47.04680000     -33.82020000     -72.13890000
H      -47.34610000     -33.42540000     -73.86240000
C      -46.35770000     -31.82410000     -72.88330000
C      -46.40320000     -31.05670000     -74.01940000
C      -45.74150000     -31.19040000     -71.75250000
H      -46.76010000     -31.27440000     -74.99200000
C      -45.30880000     -29.88740000     -72.09320000
C      -45.45040000     -31.48760000     -70.32780000
C      -44.78380000     -30.49850000     -69.68570000
S      -45.63270000     -29.47590000     -73.73420000
S      -44.48390000     -29.12660000     -70.78600000
H      -44.48780000     -30.45480000     -68.61310000
