40
Properties=species:S:1:pos:R:3 #=T CELL(abcABC):=T 1.889726e+02=T 90.00000=T Traj:=T positionsangstrom=T Step:=T 0=T Bead:=T pbc="F F F"
C      -41.19690000     -34.64350000     -68.98660000
C      -41.97820000     -34.92620000     -70.08110000
C      -42.22370000     -33.94610000     -71.11150000
C      -41.85470000     -32.64370000     -70.77490000
C      -41.12970000     -32.36550000     -69.61860000
C      -40.73220000     -33.35420000     -68.73540000
H      -40.85340000     -35.46090000     -68.39990000
H      -42.66720000     -34.24230000     -72.01030000
H      -40.73570000     -31.39090000     -69.58060000
H      -40.05250000     -33.10470000     -67.94770000
C      -42.08660000     -31.54750000     -71.77780000
H      -42.31740000     -32.07810000     -72.63770000
H      -41.10660000     -31.06940000     -71.91130000
C      -42.57210000     -36.25680000     -70.32960000
H      -42.48820000     -36.44240000     -71.45160000
H      -42.11550000     -37.08450000     -69.69760000
S      -43.24450000     -30.27270000     -71.21190000
S      -44.34080000     -36.16050000     -69.64030000
C      -44.90480000     -31.22490000     -70.93880000
H      -44.80110000     -31.87490000     -70.09250000
H      -45.68240000     -30.55950000     -70.63690000
C      -45.34280000     -34.92190000     -70.55810000
H      -44.63650000     -34.19130000     -70.86620000
H      -46.02820000     -34.56250000     -69.81860000
C      -46.10920000     -35.52850000     -71.76720000
H      -45.45880000     -35.47590000     -72.60380000
H      -46.33090000     -36.61490000     -71.57780000
C      -45.31560000     -32.03110000     -72.17810000
H      -44.88650000     -33.04940000     -72.18210000
H      -44.94310000     -31.57880000     -73.10960000
C      -46.82770000     -32.23060000     -72.32390000
C      -47.57230000     -31.08560000     -72.64610000
C      -47.64790000     -33.38410000     -72.21550000
H      -47.12060000     -30.10410000     -72.90110000
C      -48.99010000     -33.15130000     -72.57810000
C      -47.39640000     -34.81260000     -72.09560000
C      -48.61580000     -35.49600000     -72.12480000
S      -49.26110000     -31.40030000     -72.96340000
S      -50.03530000     -34.54570000     -72.45860000
H      -48.75620000     -36.55470000     -71.91540000
