40
Properties=species:S:1:pos:R:3 #=T CELL(abcABC):=T 1.889726e+02=T 90.00000=T Traj:=T positionsangstrom=T Step:=T 0=T Bead:=T pbc="F F F"
C      -42.37940000     -35.34040000     -69.10070000
C      -42.62080000     -35.19820000     -70.50800000
C      -42.41530000     -33.95630000     -71.08400000
C      -41.98530000     -32.79910000     -70.36370000
C      -41.78410000     -32.92930000     -68.95730000
C      -41.93150000     -34.23650000     -68.36690000
H      -42.42990000     -36.29530000     -68.54080000
H      -42.49710000     -33.83280000     -72.17880000
H      -41.65150000     -32.07600000     -68.28270000
H      -41.64440000     -34.36490000     -67.31530000
C      -41.71630000     -31.45750000     -71.02860000
H      -40.57880000     -31.36920000     -71.02410000
H      -42.05250000     -30.61160000     -70.39860000
C      -43.11830000     -36.42870000     -71.24670000
H      -43.39380000     -36.26620000     -72.29170000
H      -42.36390000     -37.23820000     -71.34300000
S      -42.32700000     -31.17940000     -72.77460000
S      -44.65800000     -37.07020000     -70.41330000
C      -44.14800000     -30.89450000     -72.58900000
H      -44.30690000     -29.96460000     -72.00380000
H      -44.55610000     -30.58890000     -73.57210000
C      -45.97080000     -36.08610000     -71.12870000
H      -46.83930000     -36.68090000     -71.00170000
H      -45.77780000     -35.80200000     -72.19670000
C      -46.26520000     -34.77420000     -70.34200000
H      -46.31550000     -34.89700000     -69.20520000
H      -45.43020000     -34.09130000     -70.46620000
C      -44.93550000     -32.00620000     -71.97280000
H      -44.61190000     -32.21850000     -70.93340000
H      -44.67320000     -32.96850000     -72.44480000
C      -46.45560000     -31.80450000     -72.05620000
C      -47.07520000     -30.79870000     -72.69570000
C      -47.43770000     -32.81190000     -71.64650000
H      -46.50630000     -29.98050000     -73.05890000
C      -48.72530000     -32.38530000     -72.06950000
C      -47.42750000     -34.09950000     -70.94520000
C      -48.73120000     -34.60540000     -70.83640000
S      -48.81670000     -30.95490000     -72.96940000
S      -49.97980000     -33.54440000     -71.65940000
H      -49.05360000     -35.60830000     -70.53010000
