40
Properties=species:S:1:pos:R:3 #=T CELL(abcABC):=T 1.889726e+02=T 90.00000=T Traj:=T positionsangstrom=T Step:=T 0=T Bead:=T pbc="F F F"
C      -42.37950000     -35.33020000     -68.93240000
C      -42.49610000     -35.16060000     -70.33760000
C      -42.44930000     -33.87630000     -70.86000000
C      -42.24620000     -32.72090000     -70.06450000
C      -41.99230000     -32.88370000     -68.68540000
C      -42.09450000     -34.21120000     -68.14940000
H      -42.12110000     -36.24010000     -68.49600000
H      -42.20710000     -33.87650000     -71.89850000
H      -41.76910000     -32.06030000     -68.03300000
H      -41.93990000     -34.37710000     -67.08450000
C      -42.20340000     -31.37100000     -70.67750000
H      -41.25290000     -30.85640000     -70.52370000
H      -43.05230000     -30.80230000     -70.25200000
C      -42.73830000     -36.31510000     -71.22000000
H      -42.76280000     -36.02680000     -72.29780000
H      -42.11740000     -37.21550000     -71.05260000
S      -42.35880000     -31.24870000     -72.46780000
S      -44.42110000     -37.06600000     -70.83750000
C      -44.10350000     -31.00680000     -72.95300000
H      -44.39720000     -29.90990000     -72.82580000
H      -44.20320000     -31.23370000     -74.05080000
C      -45.69760000     -35.82340000     -71.44110000
H      -46.55130000     -36.55370000     -71.63240000
H      -45.48520000     -35.54290000     -72.48500000
C      -46.17840000     -34.76870000     -70.48010000
H      -46.38870000     -35.34090000     -69.56740000
H      -45.33750000     -34.06090000     -70.22020000
C      -45.01070000     -31.92080000     -72.10430000
H      -44.87440000     -31.61100000     -71.10400000
H      -44.65560000     -32.95160000     -72.24620000
C      -46.52750000     -31.81080000     -72.18920000
C      -47.11710000     -30.78880000     -72.83730000
C      -47.44420000     -32.80660000     -71.70310000
H      -46.70340000     -30.00680000     -73.51500000
C      -48.73630000     -32.50210000     -72.12070000
C      -47.45140000     -34.08320000     -70.96000000
C      -48.73860000     -34.68120000     -70.84380000
S      -48.88840000     -31.00340000     -73.01810000
S      -49.92850000     -33.65520000     -71.60980000
H      -48.99570000     -35.60960000     -70.30530000
