40
Properties=species:S:1:pos:R:3 #=T CELL(abcABC):=T 1.889726e+02=T 90.00000=T Traj:=T positionsangstrom=T Step:=T 0=T Bead:=T pbc="F F F"
C      -42.48690000     -35.15230000     -68.62070000
C      -42.51110000     -35.15650000     -70.00210000
C      -42.51010000     -33.87030000     -70.63520000
C      -42.27120000     -32.66720000     -69.93180000
C      -42.29150000     -32.73470000     -68.52060000
C      -42.29510000     -33.95790000     -67.91230000
H      -42.56190000     -36.13020000     -68.03020000
H      -42.37370000     -33.74480000     -71.74790000
H      -42.26380000     -31.79990000     -67.98550000
H      -42.27930000     -33.92040000     -66.82680000
C      -42.07900000     -31.36210000     -70.61230000
H      -41.07000000     -31.05180000     -70.51440000
H      -42.71450000     -30.57500000     -70.14200000
C      -42.63970000     -36.35580000     -70.90780000
H      -42.19920000     -36.04280000     -71.87360000
H      -42.00460000     -37.22060000     -70.60260000
S      -42.36250000     -31.05910000     -72.44330000
S      -44.31170000     -37.10160000     -71.22700000
C      -44.25450000     -30.72470000     -72.41070000
H      -44.44620000     -30.30940000     -71.40750000
H      -44.43640000     -30.07160000     -73.30410000
C      -45.30640000     -35.61600000     -71.76610000
H      -46.04710000     -35.93580000     -72.52320000
H      -44.64760000     -34.99720000     -72.41150000
C      -46.08480000     -34.88650000     -70.63500000
H      -46.43500000     -35.64620000     -69.94000000
H      -45.41400000     -34.14040000     -70.18420000
C      -45.06060000     -32.09240000     -72.46640000
H      -44.66740000     -32.68630000     -71.61420000
H      -44.71100000     -32.62080000     -73.28810000
C      -46.55310000     -31.98800000     -72.43540000
C      -47.19060000     -31.00790000     -73.08720000
C      -47.45790000     -32.93750000     -71.88340000
H      -46.70100000     -30.12980000     -73.53940000
C      -48.79040000     -32.62390000     -72.13410000
C      -47.38200000     -34.23330000     -71.20160000
C      -48.63770000     -34.75800000     -70.94050000
S      -48.96110000     -31.11910000     -73.09040000
S      -49.91700000     -33.71670000     -71.37720000
H      -48.89950000     -35.75660000     -70.57930000
