40
Properties=species:S:1:pos:R:3 #=T CELL(abcABC):=T 1.889726e+02=T 90.00000=T Traj:=T positionsangstrom=T Step:=T 0=T Bead:=T pbc="F F F"
C      -43.83100000     -36.60790000     -69.24210000
C      -45.24290000     -36.33470000     -69.36660000
C      -45.83680000     -36.46390000     -70.62580000
C      -45.09730000     -36.88410000     -71.73730000
C      -43.73530000     -37.19680000     -71.61970000
C      -43.10250000     -36.98920000     -70.39720000
H      -43.39580000     -36.56770000     -68.26660000
H      -46.87910000     -36.10280000     -70.80040000
H      -42.99260000     -37.42330000     -72.45450000
H      -42.02760000     -37.23780000     -70.38290000
C      -45.90440000     -36.94480000     -73.08470000
H      -46.96470000     -36.91480000     -72.95790000
H      -45.80030000     -37.94300000     -73.46880000
C      -46.16290000     -35.94710000     -68.16450000
H      -47.14560000     -35.66810000     -68.52750000
H      -46.23340000     -36.73930000     -67.36560000
S      -45.35990000     -35.76530000     -74.34900000
S      -45.51020000     -34.34980000     -67.38260000
C      -45.13540000     -34.13690000     -73.47020000
H      -44.54660000     -34.29520000     -72.57970000
H      -44.47200000     -33.52370000     -74.04840000
C      -44.79490000     -33.26260000     -68.62160000
H      -43.68700000     -33.47230000     -68.74510000
H      -44.93400000     -32.30990000     -68.05500000
C      -45.52110000     -32.96620000     -70.02300000
H      -45.07830000     -33.65730000     -70.72530000
H      -46.60750000     -33.04990000     -69.99040000
C      -46.39800000     -33.30160000     -73.21180000
H      -46.95200000     -33.76340000     -72.34440000
H      -47.10010000     -33.43100000     -74.07290000
C      -46.06800000     -31.87190000     -73.06660000
C      -46.31110000     -30.98800000     -74.08010000
C      -45.54240000     -31.17330000     -71.94110000
H      -46.63800000     -31.26490000     -75.07750000
C      -45.36860000     -29.79000000     -72.16450000
C      -45.22300000     -31.47470000     -70.54990000
C      -44.84970000     -30.37820000     -69.75660000
S      -45.90780000     -29.34670000     -73.76660000
S      -44.95590000     -28.90940000     -70.69600000
H      -44.72810000     -30.40970000     -68.66820000
