40
Properties=species:S:1:pos:R:3 #=T CELL(abcABC):=T 1.889726e+02=T 90.00000=T Traj:=T positionsangstrom=T Step:=T 0=T Bead:=T pbc="F F F"
C      -43.15060000     -35.29060000     -68.78460000
C      -42.96900000     -35.48970000     -70.17120000
C      -42.52930000     -34.45100000     -70.97930000
C      -42.36450000     -33.17270000     -70.40520000
C      -42.58110000     -32.99880000     -69.05810000
C      -42.92770000     -34.04380000     -68.20310000
H      -43.53340000     -36.11140000     -68.24600000
H      -42.28600000     -34.56460000     -71.99650000
H      -42.37210000     -31.96130000     -68.69470000
H      -42.98230000     -33.91210000     -67.08770000
C      -41.60930000     -32.13890000     -71.24930000
H      -40.57990000     -32.21360000     -71.16490000
H      -41.81670000     -31.22190000     -70.83920000
C      -43.14480000     -36.87020000     -70.71390000
H      -42.39450000     -37.09190000     -71.52800000
H      -42.89360000     -37.54910000     -69.88050000
S      -42.08870000     -32.10360000     -73.03970000
S      -44.94940000     -37.27850000     -71.22620000
C      -43.82980000     -31.43880000     -73.02490000
H      -43.92100000     -30.43550000     -72.56970000
H      -44.27280000     -31.46990000     -74.01590000
C      -45.83070000     -35.62230000     -71.64790000
H      -46.63490000     -36.06040000     -72.21350000
H      -45.18020000     -35.06220000     -72.31540000
C      -46.27100000     -34.76050000     -70.42480000
H      -46.55760000     -35.36270000     -69.57970000
H      -45.36610000     -34.26130000     -70.02060000
C      -44.76250000     -32.17960000     -72.07360000
H      -44.52060000     -31.97650000     -71.02000000
H      -44.68470000     -33.19210000     -72.31450000
C      -46.18870000     -31.76740000     -72.22930000
C      -46.52490000     -30.59390000     -72.79480000
C      -47.28350000     -32.55220000     -71.57150000
H      -45.96900000     -29.83090000     -73.30080000
C      -48.51580000     -31.89340000     -71.80440000
C      -47.39500000     -33.78550000     -70.87460000
C      -48.71550000     -34.06450000     -70.55300000
S      -48.33120000     -30.37470000     -72.65070000
S      -49.84840000     -32.73240000     -71.04200000
H      -49.13040000     -34.86000000     -69.94590000
