40
Properties=species:S:1:pos:R:3 #=T CELL(abcABC):=T 1.889726e+02=T 90.00000=T Traj:=T positionsangstrom=T Step:=T 0=T Bead:=T pbc="F F F"
C      -43.27650000     -35.10090000     -68.83630000
C      -42.93930000     -35.35530000     -70.17780000
C      -42.27000000     -34.40550000     -70.92350000
C      -41.98490000     -33.13280000     -70.38400000
C      -42.18960000     -32.93670000     -69.00930000
C      -42.82420000     -33.88740000     -68.23400000
H      -43.86710000     -35.88800000     -68.33730000
H      -42.22050000     -34.53900000     -72.03260000
H      -41.90280000     -31.99210000     -68.47920000
H      -42.94120000     -33.70220000     -67.14470000
C      -41.47470000     -32.00130000     -71.27500000
H      -40.31140000     -32.14520000     -71.36090000
H      -41.61120000     -30.96520000     -70.78570000
C      -43.25100000     -36.68440000     -70.81370000
H      -42.83550000     -36.73290000     -71.78680000
H      -42.78230000     -37.40620000     -70.15240000
S      -42.11320000     -31.99250000     -72.99960000
S      -45.02800000     -37.23820000     -70.97460000
C      -43.83160000     -31.32120000     -72.79160000
H      -43.53060000     -30.36040000     -72.29430000
H      -44.17240000     -31.01910000     -73.75560000
C      -45.86160000     -35.75050000     -71.73860000
H      -46.76640000     -36.22700000     -72.29820000
H      -45.32430000     -35.19500000     -72.53600000
C      -46.33090000     -34.78360000     -70.55220000
H      -46.59460000     -35.44080000     -69.72410000
H      -45.47910000     -34.15250000     -70.33890000
C      -44.78530000     -32.27570000     -72.15650000
H      -44.39590000     -32.47470000     -71.11990000
H      -44.76430000     -33.26660000     -72.64700000
C      -46.20810000     -31.77180000     -72.16910000
C      -46.69090000     -30.67560000     -72.76580000
C      -47.26990000     -32.60260000     -71.51310000
H      -46.05390000     -29.91910000     -73.13690000
C      -48.52160000     -31.98630000     -71.71980000
C      -47.45350000     -33.86650000     -70.84920000
C      -48.80650000     -34.15350000     -70.69790000
S      -48.40520000     -30.52290000     -72.65670000
S      -49.91630000     -32.91250000     -71.26500000
H      -49.18000000     -35.11550000     -70.27440000
