40
Properties=species:S:1:pos:R:3 #=T CELL(abcABC):=T 1.889726e+02=T 90.00000=T Traj:=T positionsangstrom=T Step:=T 0=T Bead:=T pbc="F F F"
C      -43.12940000     -35.12210000     -68.90340000
C      -42.84720000     -35.32430000     -70.26980000
C      -42.31340000     -34.32340000     -71.07480000
C      -41.89110000     -33.13700000     -70.51540000
C      -42.17980000     -32.89780000     -69.15830000
C      -42.85880000     -33.85590000     -68.36710000
H      -43.55900000     -35.93960000     -68.29510000
H      -41.98580000     -34.73060000     -72.04410000
H      -42.00370000     -31.92690000     -68.74350000
H      -43.20950000     -33.55270000     -67.41870000
C      -41.20510000     -32.04640000     -71.29900000
H      -40.20270000     -32.40650000     -71.55960000
H      -41.15010000     -31.15220000     -70.77070000
C      -43.22540000     -36.62530000     -70.90740000
H      -43.11610000     -36.42710000     -71.97670000
H      -42.55680000     -37.49690000     -70.74610000
S      -42.02990000     -31.73540000     -72.95430000
S      -44.94510000     -37.12900000     -70.60510000
C      -43.73900000     -31.27190000     -72.56450000
H      -43.72700000     -30.38590000     -71.87180000
H      -44.10940000     -30.82890000     -73.50690000
C      -45.98320000     -35.81090000     -71.35450000
H      -46.92470000     -36.27970000     -71.74310000
H      -45.41880000     -35.39280000     -72.15350000
C      -46.44810000     -34.76600000     -70.33130000
H      -46.74630000     -35.17330000     -69.33320000
H      -45.61080000     -34.09630000     -70.12650000
C      -44.76870000     -32.28470000     -71.98760000
H      -44.62300000     -32.54010000     -70.93940000
H      -44.50250000     -33.26620000     -72.42020000
C      -46.30900000     -31.85950000     -72.23460000
C      -46.72400000     -30.60750000     -72.65840000
C      -47.36650000     -32.68590000     -71.78620000
H      -46.12120000     -29.78830000     -72.94250000
C      -48.64380000     -32.20920000     -72.07250000
C      -47.49580000     -33.86070000     -70.93720000
C      -48.82660000     -34.29690000     -70.78950000
S      -48.49560000     -30.58050000     -72.70450000
S      -49.99790000     -33.11100000     -71.45170000
H      -49.15910000     -35.16080000     -70.15160000
