40
Properties=species:S:1:pos:R:3 #=T CELL(abcABC):=T 1.889726e+02=T 90.00000=T Traj:=T positionsangstrom=T Step:=T 0=T Bead:=T pbc="F F F"
C      -43.52750000     -35.42210000     -68.95400000
C      -43.09000000     -35.66610000     -70.27550000
C      -42.40690000     -34.64690000     -70.90610000
C      -42.21310000     -33.34690000     -70.33650000
C      -42.60090000     -33.20180000     -69.00450000
C      -43.30810000     -34.21860000     -68.33100000
H      -44.22530000     -36.09280000     -68.37680000
H      -42.22470000     -34.74700000     -71.97280000
H      -42.37370000     -32.27890000     -68.55580000
H      -43.78920000     -34.06110000     -67.40350000
C      -41.69060000     -32.18820000     -71.19900000
H      -40.59730000     -32.26690000     -71.08350000
H      -41.91740000     -31.22470000     -70.75680000
C      -43.32710000     -37.01350000     -70.97380000
H      -42.79310000     -37.05410000     -71.94280000
H      -43.02260000     -37.89390000     -70.32000000
S      -42.07670000     -32.41340000     -72.93020000
S      -45.13410000     -37.25340000     -71.24440000
C      -43.75120000     -31.48120000     -73.17490000
H      -43.55500000     -30.47200000     -72.92000000
H      -43.97190000     -31.52880000     -74.27470000
C      -45.72120000     -35.59780000     -71.80230000
H      -46.55580000     -35.74070000     -72.50240000
H      -44.96620000     -35.07800000     -72.43670000
C      -46.08430000     -34.58210000     -70.67020000
H      -46.35320000     -35.16260000     -69.77340000
H      -45.22920000     -33.91020000     -70.50370000
C      -44.74980000     -32.20840000     -72.32050000
H      -44.38500000     -32.11480000     -71.28060000
H      -44.68160000     -33.27670000     -72.50630000
C      -46.18260000     -31.65850000     -72.34090000
C      -46.59190000     -30.44030000     -72.79180000
C      -47.17290000     -32.32010000     -71.55840000
H      -46.07770000     -29.65700000     -73.39200000
C      -48.39070000     -31.64530000     -71.50680000
C      -47.22520000     -33.64550000     -70.94840000
C      -48.53110000     -33.90060000     -70.49470000
S      -48.33440000     -30.24810000     -72.48310000
S      -49.66990000     -32.54210000     -70.81440000
H      -48.79720000     -34.76600000     -69.98830000
