40
Properties=species:S:1:pos:R:3 #=T CELL(abcABC):=T 1.889726e+02=T 90.00000=T Traj:=T positionsangstrom=T Step:=T 0=T Bead:=T pbc="F F F"
C      -42.69110000     -35.02220000     -68.90820000
C      -42.77230000     -35.14140000     -70.29950000
C      -42.30200000     -34.11420000     -71.14940000
C      -41.83790000     -32.93560000     -70.51940000
C      -41.71170000     -32.84720000     -69.11450000
C      -42.21810000     -33.86390000     -68.34840000
H      -43.03010000     -35.86700000     -68.37060000
H      -42.55020000     -34.10310000     -72.19270000
H      -41.13810000     -31.95680000     -68.76720000
H      -42.17620000     -33.72910000     -67.23780000
C      -41.28190000     -31.73870000     -71.34910000
H      -40.31940000     -32.01740000     -71.83220000
H      -41.11550000     -30.83240000     -70.79370000
C      -43.21660000     -36.42980000     -70.96250000
H      -43.21170000     -36.27590000     -72.02260000
H      -42.46850000     -37.20630000     -70.85530000
S      -42.32690000     -31.46720000     -72.85540000
S      -44.80050000     -37.17720000     -70.40950000
C      -44.02170000     -30.91140000     -72.13500000
H      -43.89660000     -30.29360000     -71.23840000
H      -44.36680000     -30.30210000     -72.97590000
C      -46.08770000     -36.19270000     -71.27030000
H      -47.05990000     -36.72180000     -71.23300000
H      -45.85190000     -36.02260000     -72.28390000
C      -46.23280000     -34.79550000     -70.55600000
H      -46.27320000     -34.95420000     -69.48540000
H      -45.30690000     -34.24250000     -70.84380000
C      -44.99150000     -32.11270000     -71.87280000
H      -44.77020000     -32.53030000     -70.85110000
H      -44.62020000     -32.96450000     -72.46220000
C      -46.41280000     -31.79640000     -72.10220000
C      -46.95110000     -30.72280000     -72.73710000
C      -47.42710000     -32.75740000     -71.76140000
H      -46.48040000     -29.76600000     -73.13030000
C      -48.70910000     -32.33580000     -72.14800000
C      -47.42820000     -33.96780000     -70.96990000
C      -48.71020000     -34.46760000     -70.85790000
S      -48.73730000     -30.82480000     -72.95970000
S      -49.99590000     -33.44370000     -71.54520000
H      -48.95200000     -35.32020000     -70.22810000
