40
Properties=species:S:1:pos:R:3 #=T CELL(abcABC):=T 1.889726e+02=T 90.00000=T Traj:=T positionsangstrom=T Step:=T 0=T Bead:=T pbc="F F F"
C      -43.34390000     -35.51080000     -69.39930000
C      -43.17860000     -35.68520000     -70.76440000
C      -42.29430000     -34.81720000     -71.38420000
C      -41.68400000     -33.70910000     -70.74900000
C      -42.00240000     -33.58500000     -69.41940000
C      -42.91710000     -34.41130000     -68.77230000
H      -44.02870000     -36.11770000     -68.80800000
H      -42.35440000     -34.69180000     -72.45480000
H      -41.57050000     -32.80390000     -68.85810000
H      -43.12620000     -34.43800000     -67.73510000
C      -40.98340000     -32.71450000     -71.61050000
H      -40.22260000     -33.24820000     -72.17650000
H      -40.58990000     -31.78050000     -71.18130000
C      -43.88700000     -36.79680000     -71.53210000
H      -43.92890000     -36.50750000     -72.61480000
H      -43.26330000     -37.70520000     -71.54940000
S      -42.03780000     -32.13450000     -72.98690000
S      -45.61520000     -37.34310000     -71.08020000
C      -43.50310000     -31.42330000     -72.12330000
H      -43.17680000     -31.27970000     -71.05070000
H      -43.69910000     -30.40260000     -72.51980000
C      -46.50960000     -35.78110000     -71.50640000
H      -47.47650000     -36.00690000     -72.00080000
H      -45.86210000     -35.34930000     -72.23910000
C      -46.71940000     -34.78540000     -70.35290000
H      -47.16620000     -35.40620000     -69.54540000
H      -45.81380000     -34.49280000     -69.84470000
C      -44.70360000     -32.40860000     -72.36480000
H      -44.64070000     -33.32780000     -71.79400000
H      -44.54340000     -32.85760000     -73.40790000
C      -46.03870000     -31.82560000     -72.20270000
C      -46.35190000     -30.55490000     -72.64830000
C      -47.19030000     -32.36990000     -71.46710000
H      -45.72680000     -29.95050000     -73.29700000
C      -48.32710000     -31.48590000     -71.46940000
C      -47.48610000     -33.53400000     -70.62270000
C      -48.78610000     -33.58450000     -70.21370000
S      -48.05830000     -30.03490000     -72.33510000
S      -49.72350000     -32.16280000     -70.66820000
H      -49.18540000     -34.39100000     -69.61760000
