40
Properties=species:S:1:pos:R:3 #=T CELL(abcABC):=T 1.889726e+02=T 90.00000=T Traj:=T positionsangstrom=T Step:=T 0=T Bead:=T pbc="F F F"
C      -42.89680000     -36.81640000     -70.05660000
C      -43.39560000     -36.33980000     -71.31440000
C      -42.85780000     -35.19890000     -71.86960000
C      -41.82500000     -34.43170000     -71.20550000
C      -41.33700000     -34.90020000     -69.94830000
C      -41.87920000     -36.10460000     -69.45090000
H      -43.28450000     -37.74170000     -69.67150000
H      -43.34290000     -34.81280000     -72.76600000
H      -40.58600000     -34.29930000     -69.44360000
H      -41.50000000     -36.44220000     -68.44050000
C      -41.09620000     -33.23510000     -71.93070000
H      -40.22470000     -33.75990000     -72.37810000
H      -40.72520000     -32.55430000     -71.10480000
C      -44.68460000     -36.96120000     -71.95910000
H      -45.03740000     -36.44770000     -72.84400000
H      -44.49190000     -37.96720000     -72.21820000
S      -42.01620000     -32.28540000     -73.11320000
S      -46.12010000     -37.11990000     -70.71580000
C      -43.39260000     -31.43930000     -72.22330000
H      -43.00810000     -31.43800000     -71.21270000
H      -43.41320000     -30.36740000     -72.56090000
C      -47.21000000     -35.67050000     -71.16490000
H      -48.28180000     -35.88410000     -71.00930000
H      -47.09760000     -35.37240000     -72.23030000
C      -46.77810000     -34.40380000     -70.18010000
H      -46.89170000     -34.80800000     -69.15830000
H      -45.67380000     -34.27500000     -70.40930000
C      -44.74260000     -32.21410000     -72.32040000
H      -44.66600000     -33.07880000     -71.69090000
H      -44.83720000     -32.54220000     -73.36320000
C      -45.99010000     -31.42780000     -72.00750000
C      -46.15920000     -30.09200000     -72.40170000
C      -47.11270000     -31.93710000     -71.22420000
H      -45.44060000     -29.50970000     -72.99530000
C      -48.14270000     -30.98700000     -71.20620000
C      -47.51780000     -33.12750000     -70.55770000
C      -48.80830000     -33.01890000     -69.99860000
S      -47.70810000     -29.45200000     -71.86090000
S      -49.58310000     -31.43790000     -70.40990000
H      -49.06690000     -33.76530000     -69.26820000
