40
Properties=species:S:1:pos:R:3 #=T CELL(abcABC):=T 1.889726e+02=T 90.00000=T Traj:=T positionsangstrom=T Step:=T 0=T Bead:=T pbc="F F F"
C      -43.16700000     -36.80900000     -70.06360000
C      -43.63510000     -36.21820000     -71.24170000
C      -42.94340000     -35.07560000     -71.78780000
C      -41.88830000     -34.48180000     -71.13320000
C      -41.38170000     -35.05570000     -69.95790000
C      -41.99060000     -36.18750000     -69.42050000
H      -43.52380000     -37.79920000     -69.70460000
H      -43.33000000     -34.50580000     -72.64370000
H      -40.50620000     -34.58900000     -69.44140000
H      -41.47730000     -36.55550000     -68.59420000
C      -41.27970000     -33.21790000     -71.78220000
H      -40.32900000     -33.52510000     -72.26020000
H      -40.97560000     -32.58030000     -70.99820000
C      -44.90430000     -36.72740000     -72.01760000
H      -45.16590000     -35.98290000     -72.75470000
H      -44.59920000     -37.66220000     -72.47420000
S      -42.03990000     -32.40930000     -73.21300000
S      -46.36110000     -37.17200000     -71.00140000
C      -43.48090000     -31.53820000     -72.40370000
H      -43.22820000     -31.51890000     -71.33000000
H      -43.57560000     -30.52380000     -72.84350000
C      -47.29130000     -35.50850000     -70.85820000
H      -48.22060000     -35.67850000     -70.36440000
H      -47.53110000     -35.26030000     -71.93090000
C      -46.50540000     -34.39860000     -70.32510000
H      -46.32190000     -34.60720000     -69.21220000
H      -45.52750000     -34.51270000     -70.84810000
C      -44.78540000     -32.22210000     -72.70300000
H      -44.76320000     -33.23550000     -72.23400000
H      -44.93010000     -32.44380000     -73.74820000
C      -46.00190000     -31.46380000     -72.18160000
C      -46.22600000     -30.17500000     -72.56260000
C      -47.06730000     -31.92390000     -71.33790000
H      -45.49220000     -29.60690000     -73.15680000
C      -47.99380000     -30.93320000     -71.07610000
C      -47.21940000     -33.07230000     -70.45620000
C      -48.39020000     -32.96030000     -69.69550000
S      -47.57570000     -29.38270000     -71.76000000
S      -49.30180000     -31.48110000     -70.10180000
H      -48.92630000     -33.72220000     -69.15960000
