40
Properties=species:S:1:pos:R:3 #=T CELL(abcABC):=T 1.889726e+02=T 90.00000=T Traj:=T positionsangstrom=T Step:=T 0=T Bead:=T pbc="F F F"
C      -44.10860000     -36.44530000     -69.89350000
C      -44.05000000     -36.47340000     -71.27090000
C      -43.06760000     -35.81860000     -71.95690000
C      -42.10530000     -35.08210000     -71.21690000
C      -42.06570000     -35.11630000     -69.79880000
C      -43.20920000     -35.70990000     -69.12920000
H      -44.95280000     -36.93770000     -69.36430000
H      -43.09580000     -35.76850000     -73.04970000
H      -41.35130000     -34.60100000     -69.31080000
H      -43.40200000     -35.60850000     -68.03150000
C      -41.16410000     -34.19440000     -71.97610000
H      -40.44920000     -34.73940000     -72.54460000
H      -40.60010000     -33.50990000     -71.34760000
C      -45.04500000     -37.29610000     -72.07500000
H      -44.80940000     -37.12640000     -73.14980000
H      -45.01360000     -38.41540000     -71.87980000
S      -42.16940000     -33.06400000     -73.13100000
S      -46.86040000     -36.87290000     -71.83660000
C      -43.49720000     -32.40150000     -72.08950000
H      -43.78190000     -33.09790000     -71.35210000
H      -43.09150000     -31.56110000     -71.51920000
C      -47.01190000     -34.96130000     -71.74480000
H      -48.08120000     -34.82120000     -71.69790000
H      -46.62940000     -34.67650000     -72.69490000
C      -46.33160000     -34.24260000     -70.51990000
H      -46.44670000     -34.80830000     -69.61050000
H      -45.28150000     -34.18370000     -70.79800000
C      -44.80750000     -32.10360000     -72.95930000
H      -45.20810000     -33.13590000     -73.05250000
H      -44.55000000     -31.65140000     -73.91300000
C      -45.87010000     -31.25260000     -72.33600000
C      -46.09060000     -29.94350000     -72.68450000
C      -46.65930000     -31.62940000     -71.14550000
H      -45.54840000     -29.34160000     -73.35330000
C      -47.49780000     -30.60920000     -70.70920000
C      -46.88420000     -32.83220000     -70.32970000
C      -47.75270000     -32.60650000     -69.25560000
S      -47.34850000     -29.20620000     -71.72190000
S      -48.44050000     -30.92470000     -69.30650000
H      -48.04850000     -33.40090000     -68.54820000
