40
Properties=species:S:1:pos:R:3 #=T CELL(abcABC):=T 1.889726e+02=T 90.00000=T Traj:=T positionsangstrom=T Step:=T 0=T Bead:=T pbc="F F F"
C      -42.20570000     -31.46860000     -71.96230000
C      -43.34370000     -30.79750000     -72.46070000
C      -44.17910000     -31.33010000     -73.43830000
C      -43.72210000     -32.49670000     -74.11670000
C      -42.49990000     -33.09540000     -73.70200000
C      -41.77980000     -32.61700000     -72.63600000
H      -41.60720000     -31.03810000     -71.22320000
H      -45.01040000     -30.81560000     -73.66340000
H      -42.22530000     -33.99120000     -74.26530000
H      -40.83980000     -33.24380000     -72.43850000
C      -44.46770000     -32.96470000     -75.31200000
H      -43.93530000     -33.79850000     -75.83210000
H      -44.58350000     -32.13100000     -75.98180000
C      -43.71880000     -29.50440000     -71.67300000
H      -42.82890000     -29.01330000     -71.21310000
H      -44.10440000     -28.78230000     -72.36750000
S      -46.25900000     -33.61360000     -75.13190000
S      -45.10380000     -29.65430000     -70.31650000
C      -46.19750000     -34.95800000     -73.84050000
H      -46.85270000     -35.71090000     -74.16390000
H      -45.25140000     -35.47290000     -74.00040000
C      -44.55750000     -31.17880000     -69.40070000
H      -44.89180000     -31.04540000     -68.32930000
H      -43.49160000     -31.13490000     -69.33540000
C      -45.03440000     -32.46190000     -70.11870000
H      -45.58700000     -32.26640000     -71.02730000
H      -44.07830000     -32.90400000     -70.48290000
C      -46.47240000     -34.34150000     -72.43590000
H      -47.43130000     -33.74030000     -72.53930000
H      -45.76980000     -33.57000000     -72.22940000
C      -46.45860000     -35.29710000     -71.25050000
C      -46.96310000     -36.55900000     -71.24120000
C      -46.32560000     -34.77450000     -69.89430000
H      -47.07240000     -37.19820000     -72.10050000
C      -46.70740000     -35.68960000     -68.93520000
C      -45.81360000     -33.55440000     -69.35850000
C      -45.90080000     -33.54630000     -67.96390000
S      -47.16430000     -37.21820000     -69.57840000
S      -46.59440000     -35.01210000     -67.31400000
H      -45.52220000     -32.74790000     -67.24660000
