40
Properties=species:S:1:pos:R:3 #=T CELL(abcABC):=T 1.889726e+02=T 90.00000=T Traj:=T positionsangstrom=T Step:=T 0=T Bead:=T pbc="F F F"
C      -44.73240000     -36.80430000     -69.95340000
C      -44.70790000     -36.75230000     -71.37280000
C      -43.64460000     -36.04140000     -72.00250000
C      -42.56540000     -35.54200000     -71.21090000
C      -42.58210000     -35.66650000     -69.82110000
C      -43.64720000     -36.30540000     -69.16600000
H      -45.61040000     -37.26340000     -69.52320000
H      -43.66460000     -35.79690000     -73.04760000
H      -41.82110000     -35.32150000     -69.14690000
H      -43.71780000     -36.45280000     -68.11640000
C      -41.40330000     -34.74830000     -71.87180000
H      -40.69760000     -35.32070000     -72.45380000
H      -40.79600000     -34.30910000     -71.08520000
C      -45.82050000     -37.33080000     -72.15070000
H      -45.60130000     -37.43530000     -73.28340000
H      -46.06650000     -38.37890000     -71.84610000
S      -41.90440000     -33.41260000     -73.05040000
S      -47.45050000     -36.47630000     -71.92960000
C      -43.15240000     -32.38310000     -72.10180000
H      -43.32150000     -32.92070000     -71.12780000
H      -42.72780000     -31.35310000     -71.90960000
C      -47.13850000     -34.65420000     -71.90730000
H      -48.15540000     -34.21570000     -71.96380000
H      -46.60930000     -34.32850000     -72.76460000
C      -46.45640000     -34.05830000     -70.62980000
H      -46.64470000     -34.59450000     -69.68900000
H      -45.35300000     -34.20680000     -70.76350000
C      -44.47370000     -32.15280000     -72.84720000
H      -45.05380000     -33.06340000     -73.05410000
H      -44.20940000     -31.70570000     -73.81220000
C      -45.28740000     -31.12740000     -72.07690000
C      -45.40180000     -29.80330000     -72.46810000
C      -46.26290000     -31.47640000     -71.09670000
H      -44.96900000     -29.25710000     -73.26860000
C      -46.96880000     -30.34870000     -70.65480000
C      -46.75840000     -32.62620000     -70.41410000
C      -47.78250000     -32.34980000     -69.52750000
S      -46.61000000     -28.91550000     -71.51380000
S      -48.17220000     -30.66650000     -69.41550000
H      -48.32710000     -33.14170000     -68.94720000
