40
Properties=species:S:1:pos:R:3 #=T CELL(abcABC):=T 1.889726e+02=T 90.00000=T Traj:=T positionsangstrom=T Step:=T 0=T Bead:=T pbc="F F F"
C      -46.66620000     -33.83780000     -68.97460000
C      -47.24300000     -34.21990000     -70.18780000
C      -47.32710000     -33.33060000     -71.29700000
C      -46.86370000     -32.02960000     -71.13150000
C      -46.34790000     -31.58840000     -69.86560000
C      -46.18150000     -32.53550000     -68.81950000
H      -46.79580000     -34.45020000     -68.13050000
H      -47.76290000     -33.73070000     -72.24320000
H      -46.13610000     -30.56510000     -69.66500000
H      -45.63270000     -32.20770000     -68.00720000
C      -47.00280000     -30.97230000     -72.25710000
H      -46.17040000     -30.32870000     -72.19670000
H      -47.99530000     -30.48210000     -72.06820000
C      -47.84930000     -35.62970000     -70.30380000
H      -48.32010000     -35.93250000     -69.44500000
H      -48.63880000     -35.65870000     -71.03690000
S      -47.04880000     -31.57690000     -74.02630000
S      -46.64840000     -36.95340000     -70.68800000
C      -45.93010000     -33.05800000     -74.27240000
H      -46.27620000     -33.92730000     -73.70470000
H      -46.10640000     -33.16080000     -75.32320000
C      -46.01550000     -36.26300000     -72.26680000
H      -46.67580000     -35.47930000     -72.62180000
H      -46.15640000     -37.11230000     -72.95170000
C      -44.58640000     -35.80090000     -72.31810000
H      -43.98000000     -36.68360000     -72.27490000
H      -44.35370000     -35.27700000     -73.26300000
C      -44.47950000     -32.67970000     -74.12340000
H      -44.29440000     -31.75480000     -74.71220000
H      -43.85940000     -33.47330000     -74.50310000
C      -44.01600000     -32.37700000     -72.70810000
C      -43.54590000     -31.10420000     -72.34940000
C      -43.79110000     -33.31460000     -71.56480000
H      -43.63490000     -30.23870000     -73.00040000
C      -43.33060000     -32.67110000     -70.45330000
C      -44.14940000     -34.75950000     -71.26460000
C      -43.73620000     -35.06900000     -70.00460000
S      -42.93310000     -30.95480000     -70.72890000
S      -42.92770000     -33.72450000     -69.10420000
H      -43.78320000     -36.08140000     -69.56160000
