40
Properties=species:S:1:pos:R:3 #=T CELL(abcABC):=T 1.889726e+02=T 90.00000=T Traj:=T positionsangstrom=T Step:=T 0=T Bead:=T pbc="F F F"
C      -46.75000000     -33.95490000     -68.84980000
C      -47.33580000     -34.26220000     -70.10810000
C      -47.58810000     -33.37780000     -71.11310000
C      -46.95890000     -32.09090000     -71.00660000
C      -46.25160000     -31.75890000     -69.86760000
C      -46.12260000     -32.68830000     -68.84630000
H      -46.43930000     -34.70460000     -68.11900000
H      -48.05750000     -33.64610000     -72.04290000
H      -45.73120000     -30.79470000     -69.79900000
H      -45.54100000     -32.39990000     -68.01570000
C      -47.05320000     -31.03380000     -72.06050000
H      -46.27020000     -30.24840000     -71.95210000
H      -48.02870000     -30.50350000     -72.05960000
C      -47.86180000     -35.66650000     -70.36120000
H      -48.02890000     -36.14280000     -69.38170000
H      -48.83670000     -35.67210000     -70.96630000
S      -47.08810000     -31.53750000     -73.82980000
S      -46.57150000     -36.91470000     -70.99390000
C      -45.98630000     -32.96320000     -74.02680000
H      -46.20110000     -33.82000000     -73.29900000
H      -46.17120000     -33.40830000     -75.01120000
C      -45.90270000     -36.17540000     -72.60400000
H      -46.61310000     -35.36780000     -72.85330000
H      -45.93810000     -36.86260000     -73.46040000
C      -44.46880000     -35.74120000     -72.50760000
H      -43.83480000     -36.63270000     -72.49480000
H      -44.35760000     -35.20550000     -73.53070000
C      -44.43930000     -32.63480000     -74.04690000
H      -44.28020000     -31.95960000     -74.87000000
H      -43.98780000     -33.57720000     -74.46410000
C      -43.82070000     -32.29240000     -72.72390000
C      -43.52840000     -30.96650000     -72.33260000
C      -43.77100000     -33.26980000     -71.61220000
H      -43.56050000     -30.15780000     -72.97660000
C      -43.27530000     -32.66400000     -70.45220000
C      -44.06590000     -34.71470000     -71.38000000
C      -43.67570000     -35.04070000     -70.10140000
S      -42.94610000     -30.97520000     -70.64940000
S      -43.05920000     -33.74180000     -69.12340000
H      -43.74810000     -36.06020000     -69.77160000
