40
Properties=species:S:1:pos:R:3 #=T CELL(abcABC):=T 1.889726e+02=T 90.00000=T Traj:=T positionsangstrom=T Step:=T 0=T Bead:=T pbc="F F F"
C      -42.11900000     -31.06690000     -72.47070000
C      -43.34810000     -31.18790000     -71.84690000
C      -44.21960000     -32.16930000     -72.36110000
C      -43.91750000     -33.03990000     -73.47940000
C      -42.62380000     -32.89700000     -74.11290000
C      -41.81390000     -31.84710000     -73.58640000
H      -41.41280000     -30.33110000     -72.26510000
H      -45.10780000     -32.42880000     -71.84130000
H      -42.44110000     -33.40070000     -75.01560000
H      -40.85420000     -31.61900000     -74.10020000
C      -44.98730000     -33.92430000     -73.99520000
H      -45.19900000     -33.86210000     -75.11910000
H      -45.95980000     -33.78840000     -73.48670000
C      -43.71290000     -30.44230000     -70.59710000
H      -43.35750000     -29.39780000     -70.44290000
H      -44.78550000     -30.21580000     -70.65250000
S      -44.56690000     -35.64670000     -73.68960000
S      -43.14510000     -31.33010000     -69.09120000
C      -44.01570000     -35.58370000     -71.92220000
H      -43.13330000     -36.08120000     -71.87330000
H      -43.69070000     -34.60210000     -71.55740000
C      -43.68130000     -33.09340000     -69.21740000
H      -42.85550000     -33.66180000     -68.84290000
H      -43.88730000     -33.41090000     -70.24990000
C      -44.91710000     -33.37970000     -68.47240000
H      -44.82250000     -34.51020000     -68.25480000
H      -45.01430000     -32.83300000     -67.58990000
C      -45.11220000     -36.08900000     -70.95520000
H      -44.71300000     -36.22980000     -69.94200000
H      -45.29200000     -37.13370000     -71.29590000
C      -46.44760000     -35.33890000     -71.00010000
C      -47.49210000     -35.77560000     -71.77780000
C      -46.78870000     -34.10770000     -70.27490000
H      -47.48370000     -36.72660000     -72.25410000
C      -48.13400000     -33.79700000     -70.70490000
C      -46.22440000     -33.29500000     -69.22350000
C      -47.06950000     -32.24560000     -69.00020000
S      -48.85720000     -34.77950000     -71.93930000
S      -48.57740000     -32.33690000     -69.88260000
H      -46.97240000     -31.55980000     -68.20560000
