40
Properties=species:S:1:pos:R:3 #=T CELL(abcABC):=T 1.889726e+02=T 90.00000=T Traj:=T positionsangstrom=T Step:=T 0=T Bead:=T pbc="F F F"
C      -44.98060000     -36.94520000     -70.55750000
C      -44.90010000     -36.46170000     -71.88150000
C      -43.65870000     -35.90060000     -72.20370000
C      -42.58540000     -35.79380000     -71.37910000
C      -42.69180000     -36.19220000     -70.04590000
C      -43.91830000     -36.84540000     -69.72070000
H      -45.89520000     -37.38720000     -70.20210000
H      -43.43690000     -35.51700000     -73.22450000
H      -41.95580000     -36.18290000     -69.25750000
H      -44.01280000     -37.18110000     -68.69940000
C      -41.31930000     -35.13660000     -71.92680000
H      -40.94600000     -35.85250000     -72.66840000
H      -40.51640000     -35.00270000     -71.14960000
C      -46.05980000     -36.54210000     -72.89360000
H      -46.13630000     -35.76270000     -73.60680000
H      -46.13990000     -37.43180000     -73.43720000
S      -41.57740000     -33.51900000     -72.63140000
S      -47.72550000     -36.44580000     -72.02680000
C      -42.80900000     -32.43900000     -71.71330000
H      -42.91950000     -32.63490000     -70.66660000
H      -42.33210000     -31.43750000     -71.84670000
C      -47.98790000     -34.63320000     -71.66230000
H      -48.98440000     -34.55660000     -71.20070000
H      -48.08470000     -33.96890000     -72.55600000
C      -47.01270000     -34.09150000     -70.59090000
H      -47.11970000     -34.60080000     -69.58010000
H      -45.95100000     -34.35440000     -70.95900000
C      -44.20090000     -32.40380000     -72.31330000
H      -44.70720000     -33.32500000     -72.18820000
H      -44.21610000     -32.26470000     -73.35940000
C      -45.05400000     -31.30380000     -71.69950000
C      -44.70070000     -29.97720000     -71.88280000
C      -46.25770000     -31.45870000     -70.87230000
H      -43.95540000     -29.64350000     -72.52490000
C      -46.72800000     -30.15590000     -70.43220000
C      -47.09640000     -32.58210000     -70.47370000
C      -48.27000000     -32.11370000     -69.91410000
S      -45.82540000     -28.82120000     -71.15070000
S      -48.37430000     -30.35590000     -69.74440000
H      -49.00570000     -32.83300000     -69.39930000
