40
Properties=species:S:1:pos:R:3 #=T CELL(abcABC):=T 1.889726e+02=T 90.00000=T Traj:=T positionsangstrom=T Step:=T 0=T Bead:=T pbc="F F F"
C      -46.92260000     -33.47240000     -68.97040000
C      -47.51370000     -33.96770000     -70.14750000
C      -47.71480000     -33.07990000     -71.22470000
C      -47.07860000     -31.81320000     -71.24540000
C      -46.38240000     -31.34470000     -70.08420000
C      -46.37880000     -32.17010000     -68.96960000
H      -46.49100000     -34.20940000     -68.21260000
H      -48.07600000     -33.54600000     -72.09760000
H      -45.88220000     -30.33760000     -70.14490000
H      -45.97620000     -31.76240000     -68.01650000
C      -47.14910000     -30.97600000     -72.48520000
H      -46.38760000     -30.16760000     -72.46850000
H      -48.10900000     -30.41530000     -72.58520000
C      -47.95770000     -35.39140000     -70.30900000
H      -48.56140000     -35.76420000     -69.49970000
H      -48.43540000     -35.61910000     -71.20160000
S      -47.13510000     -31.86510000     -74.12910000
S      -46.38730000     -36.46870000     -70.33740000
C      -45.99550000     -33.27120000     -74.02660000
H      -46.13290000     -33.60590000     -73.01190000
H      -46.32770000     -34.07570000     -74.74370000
C      -46.08230000     -36.14300000     -72.13220000
H      -46.61880000     -35.28310000     -72.53490000
H      -46.27820000     -36.96070000     -72.82820000
C      -44.49780000     -35.89270000     -72.31210000
H      -44.11190000     -36.93200000     -72.17480000
H      -44.42710000     -35.72670000     -73.42380000
C      -44.51780000     -32.91940000     -74.09290000
H      -44.31190000     -32.08730000     -74.71200000
H      -44.12520000     -33.74960000     -74.68940000
C      -43.95000000     -32.64640000     -72.73280000
C      -43.36360000     -31.38930000     -72.50650000
C      -43.77420000     -33.51440000     -71.60040000
H      -43.38790000     -30.56490000     -73.33490000
C      -43.21430000     -32.81920000     -70.45990000
C      -43.86240000     -34.93430000     -71.34640000
C      -43.44720000     -35.19500000     -70.00910000
S      -42.76990000     -31.19620000     -70.83230000
S      -42.97130000     -33.78040000     -69.05190000
H      -43.47380000     -36.10540000     -69.41590000
