40
Properties=species:S:1:pos:R:3 #=T CELL(abcABC):=T 1.889726e+02=T 90.00000=T Traj:=T positionsangstrom=T Step:=T 0=T Bead:=T pbc="F F F"
C      -46.64200000     -33.16300000     -69.05810000
C      -47.36890000     -33.75760000     -70.04880000
C      -47.40440000     -33.05350000     -71.29710000
C      -46.91890000     -31.77940000     -71.47700000
C      -46.26130000     -31.17740000     -70.41240000
C      -46.07070000     -31.88530000     -69.23120000
H      -46.34800000     -33.73360000     -68.11810000
H      -48.00380000     -33.45950000     -72.07260000
H      -46.04010000     -30.10830000     -70.50020000
H      -45.78380000     -31.30950000     -68.32300000
C      -47.21570000     -31.11120000     -72.79520000
H      -46.71810000     -30.17460000     -72.96510000
H      -48.26200000     -30.78850000     -72.77940000
C      -47.93000000     -35.16730000     -69.89290000
H      -48.34020000     -35.15430000     -68.88640000
H      -48.79160000     -35.36370000     -70.53210000
S      -47.08650000     -32.05550000     -74.38110000
S      -46.72240000     -36.61540000     -70.09540000
C      -45.82050000     -33.38990000     -74.14120000
H      -45.99630000     -33.82970000     -73.19570000
H      -45.94440000     -34.13300000     -74.91860000
C      -46.11100000     -36.29950000     -71.83110000
H      -46.64230000     -35.34390000     -72.14160000
H      -46.53610000     -37.08690000     -72.48460000
C      -44.65420000     -35.92380000     -72.16230000
H      -43.93920000     -36.70470000     -72.34200000
H      -44.68780000     -35.44250000     -73.09230000
C      -44.32130000     -32.95560000     -74.12960000
H      -44.08010000     -32.13920000     -74.80780000
H      -43.69670000     -33.79970000     -74.55010000
C      -43.86760000     -32.63770000     -72.69620000
C      -43.47320000     -31.35070000     -72.41780000
C      -43.78410000     -33.51780000     -71.53050000
H      -43.38570000     -30.53020000     -73.09160000
C      -43.12410000     -32.84790000     -70.48750000
C      -44.01220000     -34.91490000     -71.25700000
C      -43.73150000     -35.21960000     -69.90260000
S      -42.93030000     -31.13940000     -70.79480000
S      -42.94130000     -33.84540000     -69.06240000
H      -43.65470000     -36.21570000     -69.48370000
