40
Properties=species:S:1:pos:R:3 #=T CELL(abcABC):=T 1.889726e+02=T 90.00000=T Traj:=T positionsangstrom=T Step:=T 0=T Bead:=T pbc="F F F"
C      -46.50710000     -33.07370000     -69.08730000
C      -47.37740000     -33.70690000     -70.02340000
C      -47.50830000     -33.10590000     -71.26670000
C      -46.82940000     -31.87850000     -71.58790000
C      -46.18500000     -31.19960000     -70.56180000
C      -45.94650000     -31.79590000     -69.34580000
H      -46.27880000     -33.49800000     -68.10190000
H      -48.13160000     -33.49080000     -71.98250000
H      -45.67970000     -30.32110000     -70.91890000
H      -45.13270000     -31.44400000     -68.72220000
C      -46.83040000     -31.11480000     -72.89890000
H      -45.87760000     -30.59840000     -72.97450000
H      -47.70330000     -30.37470000     -72.78570000
C      -47.95570000     -35.08500000     -69.74500000
H      -48.23740000     -35.22800000     -68.65600000
H      -48.84290000     -35.29470000     -70.35230000
S      -47.05060000     -31.99760000     -74.52000000
S      -46.62180000     -36.39940000     -70.13230000
C      -45.89550000     -33.46830000     -74.37970000
H      -46.41440000     -34.30280000     -73.81600000
H      -45.97750000     -33.81560000     -75.39990000
C      -46.20460000     -36.18260000     -71.89970000
H      -46.76350000     -35.36220000     -72.42660000
H      -46.51860000     -37.17540000     -72.34450000
C      -44.70590000     -36.04180000     -72.11540000
H      -44.33300000     -37.04170000     -71.85230000
H      -44.46060000     -35.71330000     -73.17320000
C      -44.47370000     -33.18100000     -73.95210000
H      -43.96020000     -32.50230000     -74.74160000
H      -43.90790000     -34.07130000     -74.07760000
C      -44.10570000     -32.69560000     -72.57090000
C      -43.55350000     -31.46050000     -72.39190000
C      -43.98320000     -33.55480000     -71.42080000
H      -43.38170000     -30.68270000     -73.18450000
C      -43.23440000     -32.89640000     -70.38970000
C      -44.13650000     -35.00390000     -71.14060000
C      -43.62630000     -35.21940000     -69.83930000
S      -42.83050000     -31.20200000     -70.75490000
S      -43.08870000     -33.81270000     -68.96650000
H      -43.93800000     -36.05780000     -69.30380000
