40
Properties=species:S:1:pos:R:3 #=T CELL(abcABC):=T 1.889726e+02=T 90.00000=T Traj:=T positionsangstrom=T Step:=T 0=T Bead:=T pbc="F F F"
C      -47.54550000     -32.66210000     -73.64630000
C      -48.27490000     -32.61970000     -72.50610000
C      -48.06090000     -31.57390000     -71.60290000
C      -47.07780000     -30.58760000     -71.79290000
C      -46.41560000     -30.54130000     -73.05380000
C      -46.66390000     -31.59240000     -73.94180000
H      -47.53100000     -33.52540000     -74.31350000
H      -48.63360000     -31.54710000     -70.66190000
H      -45.86150000     -29.67370000     -73.45130000
H      -46.11210000     -31.58910000     -74.87300000
C      -46.85480000     -29.56760000     -70.72170000
H      -47.75760000     -29.11510000     -70.30660000
H      -46.18880000     -28.75340000     -71.04760000
C      -49.17850000     -33.76140000     -72.27150000
H      -50.19070000     -33.38080000     -72.03450000
H      -49.16430000     -34.37050000     -73.22730000
S      -45.96150000     -30.22450000     -69.12000000
S      -48.48860000     -34.84350000     -70.87920000
C      -44.49580000     -31.15260000     -69.67100000
H      -43.91510000     -30.73060000     -70.44950000
H      -43.76180000     -31.06780000     -68.83590000
C      -46.70060000     -35.02730000     -71.50850000
H      -46.31840000     -34.07110000     -71.87060000
H      -46.67000000     -35.65640000     -72.38480000
C      -45.92940000     -35.75270000     -70.42580000
H      -46.14780000     -35.33400000     -69.41300000
H      -46.36970000     -36.74300000     -70.34510000
C      -44.82700000     -32.66600000     -70.11710000
H      -45.47720000     -32.49980000     -70.91100000
H      -45.32310000     -33.29860000     -69.39390000
C      -43.62200000     -33.28660000     -70.67460000
C      -42.56110000     -32.64300000     -71.20770000
C      -43.56170000     -34.73770000     -70.85250000
H      -42.37940000     -31.58690000     -71.36990000
C      -42.35580000     -35.09740000     -71.40730000
C      -44.49270000     -35.80450000     -70.79400000
C      -43.90520000     -37.03630000     -71.03020000
S      -41.35570000     -33.72020000     -71.96890000
S      -42.27880000     -36.83460000     -71.71050000
H      -44.40300000     -37.95830000     -70.95290000
