40
Properties=species:S:1:pos:R:3 #=T CELL(abcABC):=T 1.889726e+02=T 90.00000=T Traj:=T positionsangstrom=T Step:=T 0=T Bead:=T pbc="F F F"
C      -47.12970000     -31.11870000     -68.71800000
C      -46.44140000     -32.34350000     -68.45890000
C      -45.06560000     -32.40510000     -68.39640000
C      -44.36490000     -31.29120000     -68.81500000
C      -45.00410000     -30.12250000     -69.17010000
C      -46.44750000     -30.03880000     -69.11920000
H      -48.26260000     -31.03990000     -68.77790000
H      -44.50020000     -33.18780000     -67.97570000
H      -44.39330000     -29.26610000     -69.51190000
H      -46.97770000     -29.06040000     -69.21440000
C      -42.83170000     -31.35840000     -69.01450000
H      -42.40040000     -31.43240000     -67.99110000
H      -42.56680000     -30.43070000     -69.58550000
C      -47.28140000     -33.52250000     -68.01680000
H      -47.55940000     -33.27840000     -66.90320000
H      -48.31440000     -33.50960000     -68.44920000
S      -42.28110000     -32.81710000     -69.88570000
S      -46.62140000     -35.17920000     -68.09080000
C      -43.02380000     -32.56120000     -71.61250000
H      -44.03510000     -32.22220000     -71.34420000
H      -42.54630000     -31.71380000     -72.22330000
C      -46.61070000     -35.54620000     -69.93810000
H      -47.63960000     -35.87710000     -70.15300000
H      -45.83290000     -36.31700000     -70.00320000
C      -46.05620000     -34.40200000     -70.81430000
H      -46.46430000     -33.40970000     -70.44200000
H      -45.01280000     -34.27040000     -70.50870000
C      -42.96690000     -33.87080000     -72.36400000
H      -43.06390000     -34.66220000     -71.63110000
H      -41.97980000     -33.96370000     -72.77330000
C      -43.93590000     -33.83600000     -73.47510000
C      -43.42470000     -33.69380000     -74.71210000
C      -45.35340000     -34.14670000     -73.39670000
H      -42.37460000     -33.60860000     -74.95820000
C      -45.89220000     -34.24620000     -74.65840000
C      -46.30610000     -34.49700000     -72.32640000
C      -47.51530000     -34.78040000     -72.85340000
S      -44.79400000     -33.78440000     -75.93580000
S      -47.58580000     -34.67130000     -74.68400000
H      -48.43660000     -35.02940000     -72.38350000
