40
Properties=species:S:1:pos:R:3 #=T CELL(abcABC):=T 1.889726e+02=T 90.00000=T Traj:=T positionsangstrom=T Step:=T 0=T Bead:=T pbc="F F F"
C      -46.98500000     -31.42050000     -68.68960000
C      -46.28300000     -32.51390000     -68.21120000
C      -44.91110000     -32.56550000     -68.28230000
C      -44.23460000     -31.37840000     -68.73940000
C      -44.98260000     -30.30040000     -69.11640000
C      -46.35960000     -30.27850000     -69.15650000
H      -48.08350000     -31.44590000     -68.60100000
H      -44.28060000     -33.37030000     -67.92060000
H      -44.58760000     -29.43020000     -69.63520000
H      -46.91110000     -29.32680000     -69.36520000
C      -42.73080000     -31.37300000     -68.85100000
H      -42.37300000     -31.84720000     -67.90010000
H      -42.41920000     -30.35710000     -68.92460000
C      -46.93940000     -33.68040000     -67.61680000
H      -46.75240000     -33.82940000     -66.55090000
H      -48.02980000     -33.56670000     -67.75050000
S      -42.11830000     -32.46780000     -70.22160000
S      -46.47990000     -35.44300000     -68.16440000
C      -43.27120000     -32.38900000     -71.59790000
H      -44.31660000     -32.23280000     -71.28910000
H      -42.94890000     -31.52620000     -72.25320000
C      -46.71180000     -35.60600000     -70.00720000
H      -47.77770000     -35.34090000     -70.17570000
H      -46.56490000     -36.69140000     -70.20440000
C      -45.77680000     -34.67030000     -70.86510000
H      -45.79590000     -33.68430000     -70.41130000
H      -44.71800000     -34.86480000     -70.76420000
C      -42.95260000     -33.65290000     -72.51260000
H      -43.00150000     -34.58240000     -71.87600000
H      -41.94670000     -33.56220000     -72.92920000
C      -44.02990000     -33.70300000     -73.62110000
C      -43.76700000     -33.47070000     -74.93750000
C      -45.39800000     -34.16870000     -73.44600000
H      -42.84600000     -33.02790000     -75.23670000
C      -46.15330000     -34.02970000     -74.61270000
C      -46.21390000     -34.60570000     -72.34510000
C      -47.49250000     -34.72740000     -72.73420000
S      -45.09390000     -33.76880000     -76.02590000
S      -47.78690000     -34.44080000     -74.40570000
H      -48.21400000     -35.16800000     -72.17070000
