40
Properties=species:S:1:pos:R:3 #=T CELL(abcABC):=T 1.889726e+02=T 90.00000=T Traj:=T positionsangstrom=T Step:=T 0=T Bead:=T pbc="F F F"
C      -47.50910000     -33.01040000     -69.88450000
C      -47.64350000     -34.11160000     -70.72480000
C      -47.54100000     -33.94580000     -72.11900000
C      -47.25920000     -32.72550000     -72.69670000
C      -47.20880000     -31.61780000     -71.89610000
C      -47.20960000     -31.81120000     -70.52020000
H      -47.54030000     -33.08860000     -68.81100000
H      -47.74040000     -34.78800000     -72.72400000
H      -47.04710000     -30.59840000     -72.35800000
H      -47.00050000     -30.92520000     -69.87420000
C      -47.23400000     -32.63620000     -74.20300000
H      -47.75270000     -31.72640000     -74.50860000
H      -47.77660000     -33.45500000     -74.62280000
C      -47.85390000     -35.49120000     -70.14120000
H      -48.62130000     -35.53370000     -69.32980000
H      -48.19740000     -36.17920000     -70.90280000
S      -45.51790000     -32.52110000     -74.84820000
S      -46.31430000     -36.17430000     -69.35930000
C      -44.77610000     -34.05340000     -74.23030000
H      -45.45900000     -34.42410000     -73.48800000
H      -44.57920000     -34.73410000     -75.04570000
C      -45.36540000     -36.36440000     -70.88270000
H      -45.68070000     -35.73510000     -71.76940000
H      -45.44470000     -37.36640000     -71.34900000
C      -43.85010000     -35.90490000     -70.76160000
H      -43.17100000     -36.59050000     -70.20460000
H      -43.45290000     -36.01320000     -71.77350000
C      -43.49030000     -33.66670000     -73.50210000
H      -42.82630000     -33.26160000     -74.18880000
H      -43.07990000     -34.72380000     -73.31590000
C      -43.65640000     -32.79760000     -72.35920000
C      -43.77020000     -31.42690000     -72.43680000
C      -43.77990000     -33.28060000     -70.98580000
H      -43.64900000     -30.89330000     -73.42830000
C      -43.78400000     -32.15150000     -70.13410000
C      -43.81500000     -34.50270000     -70.25610000
C      -43.89760000     -34.32470000     -68.93670000
S      -43.76680000     -30.63800000     -70.91330000
S      -43.85010000     -32.63940000     -68.44950000
H      -44.08270000     -35.07680000     -68.20380000
