40
Properties=species:S:1:pos:R:3 #=T CELL(abcABC):=T 1.889726e+02=T 90.00000=T Traj:=T positionsangstrom=T Step:=T 0=T Bead:=T pbc="F F F"
C      -46.87310000     -31.31880000     -68.49580000
C      -46.13230000     -32.50800000     -68.12120000
C      -44.74420000     -32.54640000     -68.22410000
C      -44.08560000     -31.37520000     -68.67010000
C      -44.80370000     -30.26880000     -69.12800000
C      -46.22270000     -30.20990000     -69.03930000
H      -47.92240000     -31.28460000     -68.28110000
H      -44.14500000     -33.42430000     -67.99230000
H      -44.30750000     -29.33770000     -69.51800000
H      -46.70580000     -29.31050000     -69.43980000
C      -42.57340000     -31.24070000     -68.70470000
H      -42.12180000     -31.43230000     -67.70810000
H      -42.28510000     -30.24980000     -69.00990000
C      -46.91150000     -33.71900000     -67.66910000
H      -46.64740000     -33.96810000     -66.62030000
H      -48.03490000     -33.61370000     -67.73790000
S      -41.87270000     -32.29780000     -70.01050000
S      -46.45650000     -35.29240000     -68.57470000
C      -43.09060000     -32.31820000     -71.47470000
H      -44.01700000     -31.79530000     -71.26130000
H      -42.65570000     -31.75370000     -72.33970000
C      -47.39950000     -35.05420000     -70.19080000
H      -48.42810000     -34.71900000     -69.92240000
H      -47.49220000     -36.02010000     -70.68110000
C      -46.66010000     -33.95230000     -70.96400000
H      -46.98250000     -33.00810000     -70.66800000
H      -45.64040000     -34.00450000     -70.69200000
C      -43.44270000     -33.72730000     -71.98860000
H      -43.83440000     -34.41230000     -71.22310000
H      -42.45430000     -34.21630000     -72.22830000
C      -44.22740000     -33.88210000     -73.30570000
C      -43.51130000     -34.06890000     -74.52780000
C      -45.62780000     -34.04940000     -73.41790000
H      -42.40370000     -34.07120000     -74.62700000
C      -45.99540000     -34.27430000     -74.74330000
C      -46.75430000     -34.07950000     -72.49050000
C      -47.90860000     -34.37740000     -73.10020000
S      -44.68990000     -34.46190000     -75.82550000
S      -47.69070000     -34.73890000     -74.85760000
H      -48.85230000     -34.53390000     -72.61320000
