40
Properties=species:S:1:pos:R:3 #=T CELL(abcABC):=T 1.889726e+02=T 90.00000=T Traj:=T positionsangstrom=T Step:=T 0=T Bead:=T pbc="F F F"
C      -47.81320000     -33.14360000     -70.00990000
C      -47.84710000     -34.30830000     -70.79460000
C      -47.79380000     -34.06080000     -72.18590000
C      -47.63250000     -32.77530000     -72.76020000
C      -47.64370000     -31.70000000     -71.97400000
C      -47.73690000     -31.89100000     -70.54670000
H      -47.93710000     -33.15250000     -68.92660000
H      -47.87170000     -34.92440000     -72.86740000
H      -47.60430000     -30.69890000     -72.29390000
H      -47.70930000     -31.01720000     -69.93680000
C      -47.47370000     -32.63890000     -74.28790000
H      -47.82720000     -31.61250000     -74.65430000
H      -47.97500000     -33.44270000     -74.84190000
C      -47.98650000     -35.65450000     -70.28650000
H      -48.66820000     -35.72350000     -69.43410000
H      -48.40700000     -36.36920000     -70.95750000
S      -45.54010000     -32.64590000     -74.77810000
S      -46.42740000     -36.49410000     -69.58640000
C      -44.89720000     -34.22630000     -74.00320000
H      -45.58240000     -34.60210000     -73.16770000
H      -44.82660000     -34.97450000     -74.77960000
C      -45.12500000     -36.21010000     -70.86990000
H      -45.60560000     -35.50510000     -71.62250000
H      -45.01630000     -37.08330000     -71.54940000
C      -43.78730000     -35.75990000     -70.38140000
H      -43.43800000     -36.39180000     -69.56560000
H      -43.08250000     -36.01050000     -71.10290000
C      -43.49910000     -34.02110000     -73.28960000
H      -42.63620000     -33.99880000     -74.08960000
H      -43.36970000     -34.89430000     -72.67860000
C      -43.42620000     -32.88590000     -72.29230000
C      -43.30490000     -31.52600000     -72.59540000
C      -43.65950000     -33.08280000     -70.89760000
H      -43.48920000     -31.12760000     -73.54480000
C      -43.70940000     -31.92290000     -70.12840000
C      -43.66620000     -34.29410000     -69.97470000
C      -43.69770000     -33.90640000     -68.67450000
S      -43.39810000     -30.52290000     -71.14280000
S      -43.63220000     -32.20710000     -68.39400000
H      -43.83140000     -34.65480000     -67.91780000
