40
Properties=species:S:1:pos:R:3 #=T CELL(abcABC):=T 1.889726e+02=T 90.00000=T Traj:=T positionsangstrom=T Step:=T 0=T Bead:=T pbc="F F F"
C      -47.02230000     -32.90540000     -69.92000000
C      -47.48530000     -34.04080000     -70.58050000
C      -47.67770000     -33.95550000     -72.00810000
C      -47.41170000     -32.75880000     -72.67550000
C      -47.05360000     -31.64140000     -71.93900000
C      -46.94300000     -31.68850000     -70.56780000
H      -46.75580000     -32.91100000     -68.83090000
H      -48.16170000     -34.81980000     -72.55890000
H      -47.04840000     -30.70540000     -72.39930000
H      -46.68290000     -30.75970000     -70.07750000
C      -47.55100000     -32.48420000     -74.15260000
H      -48.02590000     -31.52950000     -74.34050000
H      -48.24910000     -33.24700000     -74.57640000
C      -47.89420000     -35.29150000     -69.83100000
H      -48.28720000     -34.96460000     -68.85000000
H      -48.67300000     -35.89040000     -70.30080000
S      -45.89610000     -32.48720000     -75.00350000
S      -46.49160000     -36.48150000     -69.53680000
C      -44.98870000     -33.98520000     -74.31260000
H      -45.55590000     -34.52220000     -73.58500000
H      -44.79660000     -34.61230000     -75.18940000
C      -45.46500000     -36.28270000     -71.16920000
H      -45.90750000     -35.52080000     -71.78510000
H      -45.42050000     -37.25200000     -71.72240000
C      -44.02200000     -35.77520000     -70.88040000
H      -43.62200000     -36.53310000     -70.16820000
H      -43.32220000     -35.77010000     -71.68820000
C      -43.65560000     -33.69570000     -73.57690000
H      -42.91160000     -33.22180000     -74.27230000
H      -43.26210000     -34.71010000     -73.30250000
C      -43.70600000     -32.82830000     -72.30350000
C      -43.52060000     -31.49750000     -72.39180000
C      -43.73780000     -33.22070000     -70.92870000
H      -43.46210000     -30.96180000     -73.33850000
C      -43.71590000     -32.17200000     -70.00860000
C      -43.83600000     -34.44340000     -70.23060000
C      -43.84250000     -34.35450000     -68.86330000
S      -43.31840000     -30.70640000     -70.84660000
S      -43.75170000     -32.66350000     -68.33240000
H      -44.05100000     -35.10490000     -68.11810000
