40
Properties=species:S:1:pos:R:3 #=T CELL(abcABC):=T 1.889726e+02=T 90.00000=T Traj:=T positionsangstrom=T Step:=T 0=T Bead:=T pbc="F F F"
C      -43.15500000     -36.75600000     -72.43250000
C      -43.13350000     -35.99650000     -71.24730000
C      -44.22820000     -36.02440000     -70.32400000
C      -45.37490000     -36.78850000     -70.64240000
C      -45.38430000     -37.52680000     -71.79110000
C      -44.31540000     -37.50330000     -72.67900000
H      -42.31330000     -36.87460000     -73.15560000
H      -44.15160000     -35.51330000     -69.38330000
H      -46.18530000     -38.23760000     -72.00350000
H      -44.38630000     -38.21210000     -73.48730000
C      -46.56520000     -36.98600000     -69.73360000
H      -46.29680000     -37.82490000     -69.14580000
H      -47.42220000     -37.20610000     -70.33040000
C      -41.94440000     -35.12440000     -71.00110000
H      -42.15210000     -34.61460000     -69.99180000
H      -40.89600000     -35.61720000     -70.91800000
S      -46.88590000     -35.66810000     -68.44910000
S      -41.61540000     -33.99360000     -72.41910000
C      -47.51100000     -34.29950000     -69.50750000
H      -48.33830000     -34.64880000     -70.18860000
H      -48.03740000     -33.63630000     -68.81150000
C      -43.19640000     -33.03000000     -72.69840000
H      -44.05020000     -33.67990000     -72.90170000
H      -43.11870000     -32.36600000     -73.60720000
C      -43.47620000     -31.97090000     -71.59390000
H      -43.56360000     -32.44990000     -70.58780000
H      -42.64540000     -31.27210000     -71.51680000
C      -46.44590000     -33.55450000     -70.30480000
H      -46.23850000     -34.21790000     -71.11540000
H      -45.58710000     -33.42720000     -69.63380000
C      -46.90210000     -32.22660000     -70.86890000
C      -48.21240000     -31.82530000     -70.88310000
C      -46.09210000     -31.26200000     -71.54590000
H      -48.98980000     -32.49250000     -70.38060000
C      -46.81490000     -30.16200000     -72.00630000
C      -44.67190000     -31.00680000     -71.79820000
C      -44.39940000     -29.86160000     -72.49970000
S      -48.51800000     -30.23020000     -71.57980000
S      -45.83850000     -28.84850000     -72.79080000
H      -43.48830000     -29.34660000     -72.76030000
