40
Properties=species:S:1:pos:R:3 #=T CELL(abcABC):=T 1.889726e+02=T 90.00000=T Traj:=T positionsangstrom=T Step:=T 0=T Bead:=T pbc="F F F"
C      -47.89110000     -33.08550000     -69.98360000
C      -47.75860000     -34.26950000     -70.76060000
C      -47.53590000     -34.18180000     -72.14180000
C      -47.30930000     -32.90890000     -72.72710000
C      -47.23630000     -31.77070000     -71.88790000
C      -47.52110000     -31.86830000     -70.51420000
H      -47.95170000     -33.31690000     -68.90720000
H      -47.60460000     -35.10990000     -72.68700000
H      -47.22860000     -30.78520000     -72.34590000
H      -47.53920000     -30.95920000     -69.92930000
C      -47.09760000     -32.83520000     -74.18190000
H      -47.71360000     -31.99980000     -74.57470000
H      -47.34750000     -33.75660000     -74.67490000
C      -47.93320000     -35.57670000     -70.06720000
H      -48.47150000     -35.56410000     -69.16270000
H      -48.35230000     -36.30340000     -70.76150000
S      -45.39180000     -32.59170000     -74.97120000
S      -46.31320000     -36.29720000     -69.68490000
C      -44.63260000     -34.03580000     -74.18240000
H      -45.35300000     -34.68280000     -73.56580000
H      -44.30770000     -34.70840000     -74.90950000
C      -45.26140000     -36.11060000     -71.15040000
H      -45.70720000     -35.40600000     -71.80030000
H      -45.23960000     -36.98510000     -71.80670000
C      -43.88870000     -35.67260000     -70.72700000
H      -43.57050000     -36.42830000     -69.95070000
H      -43.34110000     -35.56890000     -71.59790000
C      -43.32430000     -33.62490000     -73.41650000
H      -42.76000000     -33.04050000     -74.16130000
H      -42.71190000     -34.46860000     -73.27120000
C      -43.55840000     -32.76220000     -72.22620000
C      -43.36150000     -31.40360000     -72.34010000
C      -43.75630000     -33.16510000     -70.84700000
H      -43.13610000     -30.97830000     -73.30610000
C      -43.74860000     -32.07470000     -69.97990000
C      -43.94640000     -34.35860000     -70.11880000
C      -44.16920000     -34.17320000     -68.75610000
S      -43.47020000     -30.56600000     -70.79060000
S      -44.17310000     -32.50150000     -68.38430000
H      -44.56040000     -34.92290000     -68.08350000
