40
Properties=species:S:1:pos:R:3 #=T CELL(abcABC):=T 1.889726e+02=T 90.00000=T Traj:=T positionsangstrom=T Step:=T 0=T Bead:=T pbc="F F F"
C      -47.66560000     -33.02630000     -69.97750000
C      -47.70710000     -34.19170000     -70.74490000
C      -47.63420000     -34.11990000     -72.14080000
C      -47.28210000     -32.91600000     -72.72880000
C      -47.09130000     -31.75590000     -71.93310000
C      -47.30200000     -31.78030000     -70.55730000
H      -47.94680000     -33.09160000     -68.92530000
H      -47.82060000     -35.01810000     -72.66800000
H      -46.69790000     -30.81080000     -72.42180000
H      -47.28440000     -30.89620000     -69.88040000
C      -47.21940000     -32.84420000     -74.21070000
H      -47.88020000     -32.08310000     -74.57790000
H      -47.65910000     -33.82050000     -74.61450000
C      -47.98780000     -35.53770000     -70.08470000
H      -48.57600000     -35.40560000     -69.11510000
H      -48.49680000     -36.29040000     -70.72710000
S      -45.48770000     -32.59180000     -74.91600000
S      -46.42460000     -36.39940000     -69.48440000
C      -44.34220000     -33.95660000     -74.26980000
H      -45.07810000     -34.59110000     -73.77230000
H      -44.02320000     -34.44240000     -75.24670000
C      -45.33270000     -36.45770000     -70.98010000
H      -45.97960000     -36.10140000     -71.77050000
H      -44.95600000     -37.54840000     -71.22610000
C      -43.90480000     -35.78900000     -70.73010000
H      -43.46910000     -36.52400000     -70.03240000
H      -43.26240000     -35.88650000     -71.62710000
C      -43.03350000     -33.51450000     -73.45520000
H      -42.36530000     -33.04470000     -74.12970000
H      -42.54830000     -34.42730000     -73.09460000
C      -43.37710000     -32.66310000     -72.24680000
C      -43.25290000     -31.28840000     -72.33840000
C      -43.71550000     -33.14130000     -70.90220000
H      -42.93350000     -30.71740000     -73.22670000
C      -43.92800000     -32.06000000     -70.03870000
C      -43.83900000     -34.39360000     -70.19820000
C      -44.18120000     -34.19710000     -68.83870000
S      -43.64540000     -30.51110000     -70.84590000
S      -44.26940000     -32.52460000     -68.45860000
H      -44.20370000     -34.95480000     -68.07160000
