40
Properties=species:S:1:pos:R:3 #=T CELL(abcABC):=T 1.889726e+02=T 90.00000=T Traj:=T positionsangstrom=T Step:=T 0=T Bead:=T pbc="F F F"
C      -47.26680000     -33.01120000     -69.96030000
C      -47.63850000     -34.16930000     -70.69540000
C      -47.59490000     -34.12150000     -72.10460000
C      -47.21590000     -32.92550000     -72.79300000
C      -46.82750000     -31.84280000     -72.07160000
C      -46.79830000     -31.94410000     -70.65650000
H      -47.14690000     -32.99040000     -68.90090000
H      -47.89500000     -34.95920000     -72.76160000
H      -46.56980000     -30.92080000     -72.50420000
H      -46.53620000     -31.05320000     -70.16450000
C      -47.20470000     -32.79920000     -74.31610000
H      -47.53760000     -31.76660000     -74.61080000
H      -47.76540000     -33.60060000     -74.75330000
C      -47.95930000     -35.44140000     -70.00780000
H      -48.57270000     -35.29140000     -69.08580000
H      -48.56060000     -36.14280000     -70.68530000
S      -45.45850000     -32.59250000     -74.84260000
S      -46.40790000     -36.47470000     -69.49610000
C      -44.55940000     -34.04020000     -74.23700000
H      -45.29650000     -34.72470000     -73.69820000
H      -44.30950000     -34.61360000     -75.12840000
C      -45.35490000     -36.38550000     -70.96250000
H      -45.88800000     -35.80160000     -71.82140000
H      -45.33160000     -37.36990000     -71.37810000
C      -43.97590000     -35.72680000     -70.68600000
H      -43.35420000     -36.35140000     -70.00680000
H      -43.53310000     -35.60850000     -71.70210000
C      -43.25590000     -33.70240000     -73.48560000
H      -42.52220000     -33.40530000     -74.21400000
H      -42.93130000     -34.63600000     -73.09550000
C      -43.45040000     -32.75710000     -72.28510000
C      -43.39500000     -31.43580000     -72.45220000
C      -43.77660000     -33.10570000     -70.85430000
H      -43.14230000     -30.89630000     -73.36680000
C      -43.90950000     -32.02470000     -70.03400000
C      -44.04770000     -34.33920000     -70.10810000
C      -44.35350000     -34.08990000     -68.77850000
S      -43.65490000     -30.52800000     -70.93930000
S      -44.36910000     -32.36780000     -68.35790000
H      -44.79270000     -34.82260000     -68.10760000
