40
Properties=species:S:1:pos:R:3 #=T CELL(abcABC):=T 1.889726e+02=T 90.00000=T Traj:=T positionsangstrom=T Step:=T 0=T Bead:=T pbc="F F F"
C      -47.82890000     -33.64050000     -70.13870000
C      -47.83840000     -34.62840000     -71.16300000
C      -47.55230000     -34.24610000     -72.44920000
C      -47.48380000     -32.94490000     -72.83990000
C      -47.56910000     -31.95860000     -71.89070000
C      -47.65560000     -32.34990000     -70.53960000
H      -47.98150000     -33.95560000     -69.12930000
H      -47.54950000     -35.04560000     -73.18000000
H      -47.32570000     -30.92150000     -72.25160000
H      -47.59960000     -31.58350000     -69.75850000
C      -47.31670000     -32.58280000     -74.25800000
H      -47.82740000     -31.54960000     -74.44660000
H      -47.80920000     -33.31330000     -74.94300000
C      -47.83110000     -36.07520000     -70.77120000
H      -48.70260000     -36.20050000     -70.14610000
H      -47.93320000     -36.70930000     -71.64800000
S      -45.64630000     -32.34260000     -74.83490000
S      -46.27760000     -36.52800000     -69.94420000
C      -44.79460000     -33.87220000     -74.15380000
H      -45.69950000     -34.25610000     -73.65590000
H      -44.47690000     -34.57050000     -74.94450000
C      -44.98640000     -36.05660000     -71.13180000
H      -45.48610000     -35.26070000     -71.61140000
H      -44.65330000     -36.87600000     -71.81150000
C      -43.70260000     -35.60460000     -70.27890000
H      -43.50230000     -36.44780000     -69.50820000
H      -42.88950000     -35.62370000     -70.99270000
C      -43.51080000     -33.68230000     -73.31780000
H      -42.76840000     -33.31590000     -74.01460000
H      -43.26220000     -34.69340000     -72.95900000
C      -43.65210000     -32.71890000     -72.10930000
C      -43.42690000     -31.40060000     -72.29460000
C      -43.71590000     -33.06130000     -70.67840000
H      -43.12260000     -30.81800000     -73.23900000
C      -43.87860000     -31.90270000     -69.86550000
C      -43.73260000     -34.23400000     -69.81930000
C      -43.72110000     -33.94840000     -68.47780000
S      -43.41280000     -30.43810000     -70.78020000
S      -43.92430000     -32.23460000     -68.19290000
H      -43.90190000     -34.71030000     -67.75080000
