40
Properties=species:S:1:pos:R:3 #=T CELL(abcABC):=T 1.889726e+02=T 90.00000=T Traj:=T positionsangstrom=T Step:=T 0=T Bead:=T pbc="F F F"
C      -47.37150000     -30.12610000     -70.01240000
C      -47.31800000     -31.34390000     -69.32240000
C      -46.07610000     -31.64160000     -68.65270000
C      -44.98190000     -30.79750000     -68.85560000
C      -45.01120000     -29.73680000     -69.81050000
C      -46.21080000     -29.42360000     -70.42420000
H      -48.34650000     -29.73550000     -70.42300000
H      -45.94850000     -32.50780000     -68.03620000
H      -44.14160000     -29.18750000     -69.98350000
H      -46.15320000     -28.68330000     -71.17510000
C      -43.71590000     -31.15760000     -68.11880000
H      -43.85690000     -31.21350000     -67.03300000
H      -42.93050000     -30.41810000     -68.32130000
C      -48.46670000     -32.29190000     -69.18490000
H      -49.13020000     -32.26530000     -68.35830000
H      -49.08060000     -32.04320000     -70.08830000
S      -43.09910000     -32.88040000     -68.43230000
S      -47.83160000     -34.02210000     -69.37680000
C      -43.23830000     -32.95830000     -70.25310000
H      -43.91990000     -32.21280000     -70.64610000
H      -42.32320000     -32.77600000     -70.76850000
C      -47.78740000     -34.35080000     -71.09890000
H      -48.81390000     -34.42390000     -71.47640000
H      -47.41360000     -35.37660000     -71.13610000
C      -46.82400000     -33.41260000     -71.95110000
H      -47.33290000     -32.49610000     -72.28970000
H      -46.00460000     -33.00310000     -71.37310000
C      -43.76770000     -34.39300000     -70.64730000
H      -44.75970000     -34.52810000     -70.29080000
H      -43.05630000     -35.08240000     -70.11630000
C      -43.70870000     -34.74740000     -72.15700000
C      -42.56510000     -35.24880000     -72.80100000
C      -44.82890000     -34.74420000     -73.05510000
H      -41.59580000     -35.33940000     -72.18930000
C      -44.52650000     -35.32970000     -74.29120000
C      -46.26210000     -34.26890000     -73.09320000
C      -46.82780000     -34.37200000     -74.34900000
S      -42.81180000     -35.81360000     -74.40940000
S      -45.77880000     -35.23920000     -75.44120000
H      -47.84710000     -34.10710000     -74.48530000
