40
Properties=species:S:1:pos:R:3 #=T CELL(abcABC):=T 1.889726e+02=T 90.00000=T Traj:=T positionsangstrom=T Step:=T 0=T Bead:=T pbc="F F F"
C      -47.29750000     -30.32690000     -70.10790000
C      -47.18020000     -31.43510000     -69.24550000
C      -46.03260000     -31.56540000     -68.46800000
C      -44.98300000     -30.56100000     -68.66560000
C      -45.20280000     -29.42800000     -69.43250000
C      -46.38780000     -29.29160000     -70.13440000
H      -48.16440000     -30.31660000     -70.69340000
H      -45.78320000     -32.46580000     -67.82240000
H      -44.47360000     -28.66050000     -69.46630000
H      -46.50110000     -28.34680000     -70.74140000
C      -43.62730000     -30.93820000     -68.21640000
H      -43.59750000     -30.92540000     -67.14470000
H      -42.82920000     -30.21410000     -68.54730000
C      -48.32200000     -32.37960000     -69.10730000
H      -48.58130000     -32.37270000     -68.04600000
H      -49.17450000     -32.02430000     -69.75500000
S      -43.16220000     -32.76320000     -68.57070000
S      -47.79780000     -34.21300000     -69.23620000
C      -43.39150000     -32.97400000     -70.43720000
H      -44.21070000     -32.23770000     -70.46500000
H      -42.45570000     -32.56730000     -70.95530000
C      -47.56600000     -34.65760000     -70.96620000
H      -48.54560000     -34.86240000     -71.49710000
H      -46.96380000     -35.59670000     -70.92090000
C      -46.85310000     -33.58060000     -71.90530000
H      -47.66390000     -32.88770000     -72.08840000
H      -46.03920000     -33.08620000     -71.37310000
C      -43.75470000     -34.40910000     -70.72000000
H      -44.70110000     -34.65780000     -70.27230000
H      -42.96310000     -34.98830000     -70.16290000
C      -43.71120000     -34.79770000     -72.23590000
C      -42.61140000     -35.40720000     -72.83750000
C      -44.84120000     -34.65610000     -73.13620000
H      -41.69150000     -35.60970000     -72.26120000
C      -44.48330000     -35.18740000     -74.41650000
C      -46.25750000     -34.30850000     -73.13060000
C      -46.87180000     -34.34400000     -74.37730000
S      -42.79590000     -35.81180000     -74.57900000
S      -45.82020000     -35.18770000     -75.51980000
H      -47.92650000     -34.08380000     -74.56570000
