40
Properties=species:S:1:pos:R:3 #=T CELL(abcABC):=T 1.889726e+02=T 90.00000=T Traj:=T positionsangstrom=T Step:=T 0=T Bead:=T pbc="F F F"
C      -47.59060000     -30.30780000     -69.87810000
C      -47.23090000     -31.51050000     -69.30100000
C      -45.91410000     -31.72310000     -68.85400000
C      -44.89410000     -30.81880000     -69.07730000
C      -45.29120000     -29.55760000     -69.54720000
C      -46.65070000     -29.28990000     -69.90080000
H      -48.63980000     -30.15930000     -70.24580000
H      -45.71590000     -32.66810000     -68.40600000
H      -44.56850000     -28.75880000     -69.83180000
H      -46.94360000     -28.42260000     -70.42210000
C      -43.52370000     -31.07780000     -68.51640000
H      -43.65370000     -30.87650000     -67.39160000
H      -42.75410000     -30.40220000     -68.87640000
C      -48.28900000     -32.55710000     -69.00540000
H      -48.66680000     -32.27250000     -68.01750000
H      -49.14150000     -32.55450000     -69.65450000
S      -42.79150000     -32.72080000     -68.76710000
S      -47.66980000     -34.35130000     -69.00620000
C      -43.19010000     -33.13540000     -70.51900000
H      -43.85010000     -32.40930000     -71.00490000
H      -42.32900000     -32.97840000     -71.16890000
C      -47.32950000     -34.84000000     -70.78880000
H      -48.20170000     -35.34280000     -71.21170000
H      -46.57180000     -35.60620000     -70.61080000
C      -46.96230000     -33.71970000     -71.71090000
H      -47.92360000     -33.22990000     -71.90310000
H      -46.32740000     -32.92560000     -71.24800000
C      -43.71710000     -34.49450000     -70.74430000
H      -44.73870000     -34.66140000     -70.29740000
H      -43.03530000     -35.17800000     -70.28680000
C      -43.85620000     -34.88540000     -72.21540000
C      -42.78220000     -35.37470000     -72.88930000
C      -45.01630000     -34.79220000     -73.10240000
H      -41.81050000     -35.51160000     -72.45950000
C      -44.62760000     -35.19240000     -74.38170000
C      -46.29170000     -34.16450000     -73.03490000
C      -46.92750000     -34.13800000     -74.21750000
S      -42.97560000     -35.63370000     -74.59030000
S      -45.86090000     -34.72020000     -75.46410000
H      -47.79350000     -33.56990000     -74.50110000
