40
Properties=species:S:1:pos:R:3 #=T CELL(abcABC):=T 1.889726e+02=T 90.00000=T Traj:=T positionsangstrom=T Step:=T 0=T Bead:=T pbc="F F F"
C      -46.89220000     -29.97130000     -71.43720000
C      -47.42030000     -30.94420000     -70.60720000
C      -46.65480000     -31.40320000     -69.51520000
C      -45.43470000     -30.74850000     -69.19680000
C      -44.89740000     -29.74760000     -70.08940000
C      -45.63610000     -29.43680000     -71.22870000
H      -47.51440000     -29.54540000     -72.23090000
H      -47.14150000     -32.15950000     -68.81700000
H      -43.89500000     -29.35870000     -69.98560000
H      -45.42620000     -28.58720000     -71.77360000
C      -44.54070000     -31.22550000     -68.07530000
H      -44.91960000     -30.84150000     -67.14820000
H      -43.51250000     -30.85120000     -68.23230000
C      -48.89010000     -31.36300000     -70.62880000
H      -49.41250000     -31.03790000     -69.79480000
H      -49.32210000     -30.83280000     -71.47470000
S      -44.53880000     -33.04480000     -67.86960000
S      -49.02180000     -33.28540000     -70.72200000
C      -43.87270000     -33.52920000     -69.59880000
H      -44.34720000     -32.91640000     -70.32510000
H      -42.80310000     -33.29280000     -69.65250000
C      -47.90340000     -33.71740000     -72.10850000
H      -47.43610000     -32.80320000     -72.46150000
H      -48.53070000     -34.17260000     -72.84230000
C      -46.65370000     -34.46370000     -71.61800000
H      -46.33400000     -33.82160000     -70.80490000
H      -46.90900000     -35.40770000     -71.11970000
C      -44.04310000     -34.98820000     -69.92040000
H      -45.12090000     -35.40930000     -69.78950000
H      -43.51030000     -35.62980000     -69.15380000
C      -43.48440000     -35.25530000     -71.29990000
C      -42.22010000     -35.81680000     -71.59630000
C      -44.24220000     -35.02690000     -72.47570000
H      -41.44720000     -36.05750000     -70.88750000
C      -43.51830000     -35.20300000     -73.60470000
C      -45.64690000     -34.67460000     -72.70420000
C      -45.97210000     -34.64550000     -74.03220000
S      -41.96760000     -35.95360000     -73.33720000
S      -44.52320000     -34.94100000     -75.02380000
H      -46.86680000     -34.28110000     -74.43030000
