40
Properties=species:S:1:pos:R:3 #=T CELL(abcABC):=T 1.889726e+02=T 90.00000=T Traj:=T positionsangstrom=T Step:=T 0=T Bead:=T pbc="F F F"
C      -47.28080000     -36.95530000     -71.03940000
C      -47.95640000     -35.79500000     -70.82340000
C      -48.10350000     -34.90240000     -71.94020000
C      -47.57600000     -35.18460000     -73.18540000
C      -46.89760000     -36.41510000     -73.38830000
C      -46.76820000     -37.27430000     -72.30110000
H      -47.12530000     -37.64440000     -70.22260000
H      -48.51760000     -33.95480000     -71.87350000
H      -46.48760000     -36.73370000     -74.37460000
H      -46.37740000     -38.32270000     -72.35050000
C      -47.76160000     -34.20780000     -74.27290000
H      -48.41460000     -33.36500000     -74.09850000
H      -48.28500000     -34.74230000     -75.10430000
C      -48.47310000     -35.44170000     -69.44030000
H      -49.48500000     -35.47830000     -69.29130000
H      -47.89360000     -36.05940000     -68.80170000
S      -46.19860000     -33.59180000     -75.12150000
S      -48.05620000     -33.70660000     -68.99050000
C      -45.26050000     -32.74710000     -73.68850000
H      -44.58120000     -32.04100000     -74.28650000
H      -45.98850000     -32.16530000     -73.06440000
C      -46.28830000     -33.42800000     -69.45740000
H      -46.04670000     -34.16150000     -70.23990000
H      -45.79730000     -33.87300000     -68.54830000
C      -46.03850000     -31.94740000     -69.66970000
H      -46.58950000     -31.57180000     -70.61120000
H      -46.47800000     -31.29470000     -68.91360000
C      -44.55670000     -33.65610000     -72.67930000
H      -43.98980000     -34.48810000     -73.13400000
H      -45.35760000     -34.01120000     -72.04260000
C      -43.55700000     -32.91930000     -71.77120000
C      -42.21010000     -32.97410000     -72.20040000
C      -43.61670000     -32.09240000     -70.58380000
H      -41.82980000     -33.57110000     -73.06990000
C      -42.35900000     -31.61440000     -70.27990000
C      -44.59830000     -31.53420000     -69.70710000
C      -44.11220000     -30.54670000     -68.83620000
S      -41.07070000     -32.10660000     -71.29800000
S      -42.37210000     -30.44670000     -68.92830000
H      -44.64990000     -29.84750000     -68.20000000
