40
Properties=species:S:1:pos:R:3 #=T CELL(abcABC):=T 1.889726e+02=T 90.00000=T Traj:=T positionsangstrom=T Step:=T 0=T Bead:=T pbc="F F F"
C      -46.85760000     -29.98300000     -71.48940000
C      -47.45090000     -30.93790000     -70.62150000
C      -46.76510000     -31.26060000     -69.44240000
C      -45.41890000     -30.81340000     -69.23820000
C      -44.81560000     -29.91000000     -70.16990000
C      -45.61830000     -29.45240000     -71.24660000
H      -47.41720000     -29.83120000     -72.46170000
H      -47.35750000     -31.90850000     -68.75500000
H      -43.78980000     -29.45320000     -69.99930000
H      -45.20920000     -28.68350000     -71.91780000
C      -44.60640000     -31.13980000     -68.03540000
H      -45.12710000     -30.84290000     -67.07180000
H      -43.58940000     -30.76020000     -68.03390000
C      -48.85440000     -31.45540000     -70.77990000
H      -49.48860000     -31.18220000     -69.81980000
H      -49.42000000     -30.98930000     -71.58230000
S      -44.40300000     -33.00510000     -67.78370000
S      -49.20730000     -33.25960000     -70.90180000
C      -43.90290000     -33.44070000     -69.49660000
H      -44.61220000     -33.03690000     -70.24870000
H      -42.84320000     -33.05520000     -69.69560000
C      -48.05820000     -33.66590000     -72.32490000
H      -47.76120000     -32.78150000     -72.92810000
H      -48.67270000     -34.19730000     -73.04640000
C      -46.86940000     -34.47470000     -71.78810000
H      -46.49320000     -33.90900000     -70.91030000
H      -47.15410000     -35.49580000     -71.46510000
C      -43.95880000     -34.98100000     -69.77080000
H      -44.98190000     -35.36010000     -69.39620000
H      -43.25250000     -35.42520000     -69.14770000
C      -43.60190000     -35.33170000     -71.23040000
C      -42.23050000     -35.57110000     -71.46450000
C      -44.38480000     -35.25620000     -72.40450000
H      -41.45840000     -35.57650000     -70.71390000
C      -43.56290000     -35.47430000     -73.52470000
C      -45.72410000     -34.79200000     -72.82600000
C      -45.82320000     -34.62690000     -74.19320000
S      -41.83020000     -35.65020000     -73.11610000
S      -44.36700000     -35.16780000     -75.00400000
H      -46.65410000     -34.18820000     -74.71180000
