40
Properties=species:S:1:pos:R:3 #=T CELL(abcABC):=T 1.889726e+02=T 90.00000=T Traj:=T positionsangstrom=T Step:=T 0=T Bead:=T pbc="F F F"
C      -46.88580000     -37.04280000     -70.63930000
C      -47.40580000     -35.75890000     -70.41770000
C      -47.69400000     -34.90550000     -71.55090000
C      -47.42380000     -35.28090000     -72.83790000
C      -46.72640000     -36.54340000     -73.06740000
C      -46.50000000     -37.40760000     -71.96940000
H      -46.58220000     -37.56180000     -69.71550000
H      -48.17730000     -33.84890000     -71.40770000
H      -46.42210000     -36.93370000     -74.05950000
H      -46.04970000     -38.40360000     -72.13340000
C      -47.86060000     -34.44180000     -73.99380000
H      -48.30130000     -33.53810000     -73.54790000
H      -48.60250000     -34.88290000     -74.65880000
C      -47.96930000     -35.44320000     -69.06330000
H      -49.01590000     -35.75820000     -69.02770000
H      -47.25580000     -35.92000000     -68.28850000
S      -46.41890000     -33.93980000     -75.05310000
S      -48.01040000     -33.69400000     -68.58470000
C      -45.28510000     -32.93510000     -73.97350000
H      -44.52360000     -32.49460000     -74.57860000
H      -45.94890000     -32.21580000     -73.51250000
C      -46.31740000     -33.07810000     -68.79540000
H      -45.62790000     -33.84990000     -68.93770000
H      -46.08930000     -32.53170000     -67.88960000
C      -46.21660000     -32.08370000     -70.03170000
H      -46.54000000     -32.52110000     -70.93950000
H      -46.90440000     -31.24190000     -69.84150000
C      -44.59320000     -33.72110000     -72.78920000
H      -44.17270000     -34.58460000     -73.25030000
H      -45.35920000     -34.02800000     -72.00060000
C      -43.53670000     -32.84600000     -72.17470000
C      -42.27240000     -32.61960000     -72.73940000
C      -43.67210000     -32.09890000     -70.91490000
H      -41.95700000     -32.99280000     -73.66800000
C      -42.49750000     -31.47460000     -70.56000000
C      -44.75790000     -31.64800000     -70.02460000
C      -44.28550000     -30.78530000     -69.08170000
S      -41.29550000     -31.58280000     -71.82790000
S      -42.58780000     -30.45040000     -69.18820000
H      -44.84500000     -30.19090000     -68.35030000
