40
Properties=species:S:1:pos:R:3 #=T CELL(abcABC):=T 1.889726e+02=T 90.00000=T Traj:=T positionsangstrom=T Step:=T 0=T Bead:=T pbc="F F F"
C      -47.32160000     -33.65480000     -69.90770000
C      -47.50730000     -34.74200000     -70.72650000
C      -47.62100000     -34.66800000     -72.14530000
C      -47.34890000     -33.44180000     -72.76300000
C      -47.19190000     -32.33380000     -71.97800000
C      -47.14870000     -32.41930000     -70.59900000
H      -47.28220000     -33.61620000     -68.81050000
H      -47.79310000     -35.57250000     -72.77670000
H      -47.10420000     -31.35840000     -72.41770000
H      -47.00350000     -31.47710000     -70.03400000
C      -47.23470000     -33.34410000     -74.24510000
H      -48.07750000     -32.79540000     -74.70380000
H      -47.16940000     -34.29410000     -74.74000000
C      -47.54100000     -36.10250000     -70.08480000
H      -47.78120000     -35.98390000     -69.03370000
H      -48.16710000     -36.72590000     -70.67310000
S      -45.69590000     -32.48870000     -74.75490000
S      -45.89920000     -36.95840000     -70.08340000
C      -44.34700000     -33.63860000     -74.24670000
H      -44.77540000     -34.46770000     -73.70190000
H      -43.77580000     -34.13230000     -75.07600000
C      -44.72250000     -36.19410000     -71.26760000
H      -45.32320000     -35.45170000     -71.82680000
H      -44.47160000     -37.03860000     -71.94160000
C      -43.51200000     -35.36160000     -70.81200000
H      -42.95030000     -36.00530000     -70.06390000
H      -42.89150000     -35.22000000     -71.68480000
C      -43.26930000     -32.96920000     -73.45500000
H      -42.72360000     -32.23330000     -74.03910000
H      -42.69150000     -33.89530000     -73.15030000
C      -43.66550000     -32.23920000     -72.17810000
C      -43.78110000     -30.79140000     -72.20450000
C      -43.84980000     -32.73080000     -70.82510000
H      -43.78780000     -30.30310000     -73.22540000
C      -44.08090000     -31.63400000     -69.91210000
C      -43.79950000     -34.00470000     -70.14130000
C      -43.97170000     -33.93250000     -68.81490000
S      -44.27170000     -30.08120000     -70.64890000
S      -44.39970000     -32.29280000     -68.21350000
H      -43.94200000     -34.85090000     -68.19100000
