40
Properties=species:S:1:pos:R:3 #=T CELL(abcABC):=T 1.889726e+02=T 90.00000=T Traj:=T positionsangstrom=T Step:=T 0=T Bead:=T pbc="F F F"
C      -47.48050000     -33.60450000     -69.98340000
C      -47.53660000     -34.75990000     -70.79190000
C      -47.52570000     -34.60820000     -72.21420000
C      -47.28490000     -33.36330000     -72.78910000
C      -47.13750000     -32.22280000     -71.97320000
C      -47.36170000     -32.34630000     -70.56150000
H      -47.46830000     -33.72480000     -68.94810000
H      -47.58350000     -35.37750000     -72.91410000
H      -47.02480000     -31.21040000     -72.38130000
H      -47.24080000     -31.39160000     -69.99760000
C      -47.24390000     -33.29540000     -74.38090000
H      -48.10900000     -32.60350000     -74.62910000
H      -47.29750000     -34.28110000     -74.90450000
C      -47.49110000     -36.12820000     -70.23220000
H      -47.90770000     -36.07900000     -69.16440000
H      -48.27480000     -36.72030000     -70.67460000
S      -45.69680000     -32.43080000     -74.96650000
S      -45.78340000     -36.95110000     -70.17100000
C      -44.54960000     -33.59320000     -74.13390000
H      -45.17340000     -34.11350000     -73.36360000
H      -44.21090000     -34.29140000     -74.88080000
C      -44.78960000     -36.09250000     -71.37160000
H      -45.37100000     -35.30400000     -71.80130000
H      -44.54030000     -36.79760000     -72.13280000
C      -43.56190000     -35.50380000     -70.71600000
H      -43.17790000     -36.16150000     -69.98200000
H      -42.65650000     -35.37480000     -71.32310000
C      -43.31550000     -32.97690000     -73.36360000
H      -42.69710000     -32.35160000     -73.99890000
H      -42.65210000     -33.79890000     -73.08190000
C      -43.69850000     -32.25700000     -72.05100000
C      -43.80880000     -30.83730000     -72.10950000
C      -43.93990000     -32.82730000     -70.74390000
H      -43.49070000     -30.20280000     -73.00410000
C      -44.08090000     -31.77860000     -69.86260000
C      -43.92460000     -34.13060000     -70.01070000
C      -44.09410000     -33.95670000     -68.70300000
S      -44.10560000     -30.17370000     -70.52290000
S      -44.29760000     -32.26240000     -68.18530000
H      -44.16520000     -34.78100000     -68.04190000
