40
Properties=species:S:1:pos:R:3 #=T CELL(abcABC):=T 1.889726e+02=T 90.00000=T Traj:=T positionsangstrom=T Step:=T 0=T Bead:=T pbc="F F F"
C      -46.88160000     -30.48400000     -71.84140000
C      -47.72650000     -30.91400000     -70.74780000
C      -47.08440000     -31.15660000     -69.49200000
C      -45.73940000     -30.85240000     -69.28670000
C      -44.94480000     -30.44940000     -70.34130000
C      -45.49240000     -30.28900000     -71.60550000
H      -47.14270000     -30.55460000     -72.85340000
H      -47.72430000     -31.33720000     -68.58790000
H      -43.85320000     -30.48100000     -70.34780000
H      -44.79590000     -30.04170000     -72.35460000
C      -45.03940000     -31.10450000     -67.96970000
H      -45.72110000     -30.86360000     -67.13910000
H      -44.12000000     -30.61520000     -67.96690000
C      -49.11950000     -31.29920000     -71.04420000
H      -49.77800000     -31.06510000     -70.21860000
H      -49.56700000     -30.73350000     -71.87630000
S      -44.57950000     -32.89880000     -67.56530000
S      -49.35860000     -33.09510000     -71.43390000
C      -43.53720000     -33.28810000     -69.08650000
H      -43.73420000     -32.52290000     -69.83570000
H      -42.45060000     -33.24810000     -68.84410000
C      -47.86640000     -33.64590000     -72.45370000
H      -47.71700000     -32.88950000     -73.24240000
H      -48.25130000     -34.52190000     -73.09510000
C      -46.58090000     -34.05710000     -71.67290000
H      -46.12590000     -33.21530000     -71.14870000
H      -46.88460000     -34.82280000     -70.98660000
C      -43.74690000     -34.69060000     -69.61060000
H      -44.75810000     -35.02770000     -69.45690000
H      -43.24340000     -35.39960000     -68.99660000
C      -43.33050000     -34.91570000     -71.05620000
C      -42.08760000     -35.36060000     -71.30900000
C      -44.16180000     -34.99280000     -72.29980000
H      -41.28630000     -35.57580000     -70.60580000
C      -43.40950000     -35.42450000     -73.37080000
C      -45.53160000     -34.59190000     -72.64970000
C      -45.69740000     -34.70980000     -73.97480000
S      -41.78680000     -35.88990000     -72.97540000
S      -44.33130000     -35.30600000     -74.90850000
H      -46.49280000     -34.41730000     -74.67360000
