40
Properties=species:S:1:pos:R:3 #=T CELL(abcABC):=T 1.889726e+02=T 90.00000=T Traj:=T positionsangstrom=T Step:=T 0=T Bead:=T pbc="F F F"
C      -47.27950000     -33.60540000     -69.90160000
C      -47.36130000     -34.75960000     -70.73020000
C      -47.49460000     -34.66000000     -72.15070000
C      -47.41620000     -33.42660000     -72.75570000
C      -47.38250000     -32.25800000     -71.91910000
C      -47.27680000     -32.34000000     -70.52360000
H      -47.21400000     -33.71730000     -68.78510000
H      -47.56970000     -35.67930000     -72.77860000
H      -47.22460000     -31.25350000     -72.37190000
H      -47.27490000     -31.46820000     -69.88290000
C      -47.25480000     -33.33090000     -74.27370000
H      -48.05910000     -32.74460000     -74.77020000
H      -47.41850000     -34.39990000     -74.71930000
C      -47.41010000     -36.15060000     -70.10360000
H      -47.91780000     -36.14500000     -69.14230000
H      -47.94720000     -36.95110000     -70.76250000
S      -45.61360000     -32.51970000     -74.69230000
S      -45.78930000     -36.88410000     -69.76840000
C      -44.33850000     -33.75240000     -74.06330000
H      -44.81800000     -34.26290000     -73.21370000
H      -44.16580000     -34.48600000     -74.83890000
C      -44.77150000     -36.25820000     -71.21720000
H      -45.43550000     -35.62560000     -71.80720000
H      -44.34180000     -36.99620000     -71.90350000
C      -43.51300000     -35.44770000     -70.79490000
H      -43.02250000     -35.86560000     -69.91110000
H      -42.95820000     -35.30320000     -71.72800000
C      -43.17500000     -32.93820000     -73.48010000
H      -42.81130000     -32.23840000     -74.20170000
H      -42.33380000     -33.60020000     -73.32630000
C      -43.64420000     -32.20930000     -72.27470000
C      -43.81080000     -30.78260000     -72.27420000
C      -43.89110000     -32.75400000     -70.95750000
H      -43.69130000     -30.08690000     -73.14620000
C      -44.19920000     -31.70530000     -70.03660000
C      -43.84630000     -34.01030000     -70.25210000
C      -44.18040000     -33.91950000     -68.93370000
S      -44.29220000     -30.11680000     -70.73960000
S      -44.42620000     -32.25730000     -68.39550000
H      -44.17720000     -34.70720000     -68.14090000
