40
Properties=species:S:1:pos:R:3 #=T CELL(abcABC):=T 1.889726e+02=T 90.00000=T Traj:=T positionsangstrom=T Step:=T 0=T Bead:=T pbc="F F F"
C      -47.54990000     -33.61830000     -70.18410000
C      -47.34340000     -34.83200000     -70.82300000
C      -47.26140000     -34.79770000     -72.24420000
C      -47.36620000     -33.57460000     -72.96850000
C      -47.58960000     -32.38530000     -72.17830000
C      -47.64510000     -32.38370000     -70.79080000
H      -47.63760000     -33.71450000     -69.10590000
H      -47.13660000     -35.84010000     -72.79900000
H      -47.80000000     -31.55310000     -72.85570000
H      -47.95990000     -31.50460000     -70.21760000
C      -47.28730000     -33.58310000     -74.43340000
H      -47.94990000     -32.83350000     -74.87740000
H      -47.63530000     -34.45100000     -74.85780000
C      -47.26180000     -36.07900000     -70.05960000
H      -47.76830000     -36.06650000     -69.10900000
H      -47.61530000     -36.97210000     -70.65830000
S      -45.61880000     -33.01170000     -74.99780000
S      -45.47410000     -36.52740000     -69.66830000
C      -44.38450000     -34.06320000     -74.15310000
H      -45.02790000     -34.74160000     -73.62820000
H      -43.81660000     -34.68860000     -74.85890000
C      -44.41860000     -35.89310000     -71.04550000
H      -44.98590000     -35.21290000     -71.69230000
H      -44.15060000     -36.68630000     -71.75680000
C      -43.17110000     -35.23590000     -70.42530000
H      -42.94550000     -35.90890000     -69.56580000
H      -42.23290000     -35.12080000     -71.06060000
C      -43.36120000     -33.25060000     -73.25940000
H      -42.83280000     -32.63800000     -74.01940000
H      -42.64230000     -33.85700000     -72.72630000
C      -43.87720000     -32.35000000     -72.15800000
C      -44.33510000     -31.02910000     -72.36080000
C      -43.82330000     -32.62090000     -70.73080000
H      -44.46060000     -30.51230000     -73.36460000
C      -44.25100000     -31.53160000     -69.96110000
C      -43.56410000     -33.84780000     -69.87300000
C      -43.75600000     -33.56750000     -68.56630000
S      -44.71750000     -30.16410000     -70.86600000
S      -44.31460000     -31.91480000     -68.24010000
H      -43.65330000     -34.32180000     -67.75270000
