40
Properties=species:S:1:pos:R:3 #=T CELL(abcABC):=T 1.889726e+02=T 90.00000=T Traj:=T positionsangstrom=T Step:=T 0=T Bead:=T pbc="F F F"
C      -46.53140000     -29.46840000     -71.60440000
C      -47.38290000     -30.54610000     -71.29420000
C      -47.22000000     -31.12440000     -70.08620000
C      -46.25970000     -30.76170000     -69.10200000
C      -45.46290000     -29.70360000     -69.46420000
C      -45.57780000     -29.08020000     -70.71170000
H      -46.53290000     -29.01190000     -72.60820000
H      -47.89740000     -31.86790000     -69.69950000
H      -44.65920000     -29.38800000     -68.84550000
H      -44.95870000     -28.26950000     -71.01150000
C      -46.26260000     -31.43040000     -67.75630000
H      -47.24020000     -31.53480000     -67.14490000
H      -45.51190000     -30.96830000     -67.10930000
C      -48.50930000     -31.00590000     -72.21210000
H      -49.43260000     -30.62900000     -71.73180000
H      -48.41600000     -30.50520000     -73.17770000
S      -46.02120000     -33.28790000     -68.04340000
S      -48.76920000     -32.75220000     -72.33840000
C      -44.71260000     -33.55030000     -69.31080000
H      -44.83740000     -32.91040000     -70.15250000
H      -43.69770000     -33.37230000     -68.89140000
C      -47.21720000     -33.42840000     -73.04120000
H      -46.57980000     -32.58850000     -73.42870000
H      -47.50530000     -34.06030000     -73.88100000
C      -46.31850000     -34.24920000     -72.19090000
H      -46.14860000     -33.53210000     -71.39120000
H      -46.81030000     -35.08680000     -71.71760000
C      -44.69450000     -35.05350000     -69.61870000
H      -45.62310000     -35.44960000     -70.02180000
H      -44.47280000     -35.66340000     -68.72920000
C      -43.74790000     -35.47360000     -70.67330000
C      -42.49240000     -35.96040000     -70.45180000
C      -43.93870000     -35.18960000     -72.07340000
H      -41.90300000     -36.20970000     -69.59040000
C      -42.80000000     -35.51510000     -72.88150000
C      -45.04940000     -34.73210000     -72.83970000
C      -44.87110000     -34.81650000     -74.17200000
S      -41.51060000     -36.21590000     -71.95900000
S      -43.22350000     -35.41130000     -74.60610000
H      -45.57230000     -34.64060000     -74.98080000
