40
Properties=species:S:1:pos:R:3 #=T CELL(abcABC):=T 1.889726e+02=T 90.00000=T Traj:=T positionsangstrom=T Step:=T 0=T Bead:=T pbc="F F F"
C      -47.39130000     -33.80370000     -69.91350000
C      -47.25060000     -34.98090000     -70.69380000
C      -47.18110000     -34.92160000     -72.15270000
C      -47.38300000     -33.65670000     -72.79910000
C      -47.60880000     -32.50340000     -71.96210000
C      -47.52800000     -32.55530000     -70.58360000
H      -47.39230000     -33.90900000     -68.81480000
H      -46.79250000     -35.82410000     -72.73870000
H      -47.82360000     -31.56830000     -72.45780000
H      -47.56830000     -31.72010000     -69.88180000
C      -47.25270000     -33.52300000     -74.37820000
H      -47.91220000     -32.75520000     -74.79690000
H      -47.46830000     -34.40390000     -75.02550000
C      -47.03600000     -36.35390000     -70.10280000
H      -47.66970000     -36.53490000     -69.22150000
H      -47.26530000     -37.15410000     -70.83870000
S      -45.69490000     -32.72220000     -74.82490000
S      -45.29090000     -36.56760000     -69.53620000
C      -44.31790000     -33.89850000     -74.17730000
H      -44.81160000     -34.66940000     -73.60490000
H      -43.88510000     -34.44090000     -74.98420000
C      -44.12830000     -35.98460000     -70.78810000
H      -44.68790000     -35.50450000     -71.55870000
H      -43.79390000     -36.86220000     -71.32510000
C      -42.93200000     -35.05300000     -70.38570000
H      -42.26430000     -35.46750000     -69.57900000
H      -42.21510000     -34.91140000     -71.24310000
C      -43.27370000     -33.09120000     -73.39710000
H      -42.84110000     -32.49160000     -74.13500000
H      -42.40220000     -33.71490000     -73.07820000
C      -43.74070000     -32.23670000     -72.24740000
C      -44.35440000     -31.04090000     -72.56850000
C      -43.78550000     -32.61690000     -70.86470000
H      -44.46090000     -30.56950000     -73.50620000
C      -44.36120000     -31.53410000     -70.10510000
C      -43.49860000     -33.74440000     -69.99940000
C      -44.02090000     -33.55680000     -68.72570000
S      -44.87750000     -30.18800000     -71.09900000
S      -44.81140000     -31.98210000     -68.45780000
H      -43.83540000     -34.24810000     -67.89680000
