40
Properties=species:S:1:pos:R:3 #=T CELL(abcABC):=T 1.889726e+02=T 90.00000=T Traj:=T positionsangstrom=T Step:=T 0=T Bead:=T pbc="F F F"
C      -47.83600000     -36.43520000     -71.49670000
C      -48.29440000     -35.09250000     -71.48650000
C      -47.89240000     -34.22750000     -72.51230000
C      -47.23070000     -34.73870000     -73.64350000
C      -46.72550000     -36.02800000     -73.66110000
C      -46.98040000     -36.91260000     -72.57470000
H      -48.04880000     -37.04690000     -70.54400000
H      -48.25890000     -33.14160000     -72.46840000
H      -46.23430000     -36.42430000     -74.57790000
H      -46.58660000     -37.91980000     -72.52280000
C      -46.96100000     -33.71530000     -74.80540000
H      -47.16450000     -32.63510000     -74.54430000
H      -47.35530000     -33.90320000     -75.78510000
C      -49.13300000     -34.60020000     -70.31820000
H      -50.17810000     -34.50660000     -70.55670000
H      -49.07150000     -35.26730000     -69.53430000
S      -45.14940000     -33.76310000     -75.12190000
S      -48.74790000     -32.89930000     -69.78080000
C      -44.44270000     -32.99720000     -73.51830000
H      -43.38540000     -32.67680000     -73.79380000
H      -45.11420000     -32.18020000     -73.30270000
C      -46.92800000     -32.88020000     -69.51760000
H      -46.56120000     -33.83840000     -69.79210000
H      -46.75080000     -32.65990000     -68.46540000
C      -46.18410000     -31.81110000     -70.35460000
H      -46.13500000     -32.21310000     -71.37770000
H      -46.67030000     -30.78840000     -70.41610000
C      -44.26150000     -34.02540000     -72.37010000
H      -43.77680000     -34.89050000     -72.81660000
H      -45.23720000     -34.23120000     -72.01530000
C      -43.36170000     -33.52460000     -71.26840000
C      -42.06420000     -33.91600000     -71.26630000
C      -43.59500000     -32.46440000     -70.29100000
H      -41.62980000     -34.62540000     -72.00780000
C      -42.48590000     -32.20080000     -69.55410000
C      -44.73240000     -31.65910000     -69.85110000
C      -44.38300000     -30.72510000     -68.92260000
S      -41.06040000     -33.04070000     -70.10680000
S      -42.72850000     -30.90680000     -68.37650000
H      -45.17670000     -30.30250000     -68.40310000
