40
Properties=species:S:1:pos:R:3 #=T CELL(abcABC):=T 1.889726e+02=T 90.00000=T Traj:=T positionsangstrom=T Step:=T 0=T Bead:=T pbc="F F F"
C      -47.61060000     -33.69080000     -70.16670000
C      -47.41760000     -34.89640000     -70.87560000
C      -47.45690000     -34.81940000     -72.24300000
C      -47.40460000     -33.61150000     -72.94070000
C      -47.62160000     -32.44900000     -72.21090000
C      -47.75950000     -32.53340000     -70.81860000
H      -47.35850000     -33.79930000     -69.15520000
H      -47.27750000     -35.78580000     -72.90750000
H      -47.51220000     -31.47850000     -72.71390000
H      -47.61750000     -31.60070000     -70.29290000
C      -47.28410000     -33.56430000     -74.39990000
H      -47.98850000     -32.90160000     -74.90330000
H      -47.22540000     -34.56800000     -74.91720000
C      -47.13150000     -36.23860000     -70.23720000
H      -47.66880000     -36.42350000     -69.29940000
H      -47.25310000     -37.13110000     -70.92290000
S      -45.56250000     -33.10840000     -74.98010000
S      -45.41620000     -36.36920000     -69.53340000
C      -44.42970000     -34.09640000     -73.81910000
H      -45.06090000     -34.47520000     -72.98370000
H      -43.96560000     -34.93470000     -74.45500000
C      -44.37120000     -35.98620000     -70.96820000
H      -45.03610000     -35.32220000     -71.63820000
H      -44.06670000     -36.87920000     -71.45660000
C      -43.17020000     -35.11390000     -70.54940000
H      -42.57730000     -35.70520000     -69.85370000
H      -42.55320000     -34.99290000     -71.42310000
C      -43.29410000     -33.15360000     -73.26590000
H      -42.92200000     -32.52660000     -74.07910000
H      -42.43280000     -33.74470000     -72.87630000
C      -43.80250000     -32.31520000     -72.15330000
C      -44.17200000     -30.97840000     -72.40720000
C      -44.01300000     -32.62880000     -70.80200000
H      -44.18590000     -30.52380000     -73.38910000
C      -44.46420000     -31.57840000     -69.99970000
C      -43.58300000     -33.73910000     -69.96810000
C      -43.81180000     -33.52300000     -68.63000000
S      -44.59080000     -30.09530000     -70.89980000
S      -44.41200000     -31.92990000     -68.26190000
H      -43.54590000     -34.24430000     -67.86060000
