40
Properties=species:S:1:pos:R:3 #=T CELL(abcABC):=T 1.889726e+02=T 90.00000=T Traj:=T positionsangstrom=T Step:=T 0=T Bead:=T pbc="F F F"
C      -46.54490000     -29.60660000     -71.74110000
C      -47.38220000     -30.62450000     -71.35400000
C      -47.19250000     -31.15380000     -70.01600000
C      -46.16270000     -30.77320000     -69.18480000
C      -45.36970000     -29.71950000     -69.66850000
C      -45.59990000     -29.08910000     -70.91740000
H      -46.67940000     -29.14170000     -72.67250000
H      -47.87180000     -31.95890000     -69.77670000
H      -44.54760000     -29.29270000     -68.99360000
H      -45.12510000     -28.15330000     -71.12600000
C      -45.99400000     -31.44740000     -67.79150000
H      -46.84180000     -31.17350000     -67.11470000
H      -45.08280000     -31.05010000     -67.41490000
C      -48.52780000     -31.00550000     -72.21780000
H      -49.47880000     -30.48570000     -71.88840000
H      -48.28190000     -30.71980000     -73.24110000
S      -45.92120000     -33.25960000     -67.92340000
S      -48.85350000     -32.84100000     -72.25340000
C      -44.48200000     -33.55740000     -69.02030000
H      -44.53430000     -32.82450000     -69.86950000
H      -43.60630000     -33.22110000     -68.41510000
C      -47.39880000     -33.43110000     -73.18520000
H      -46.85390000     -32.65370000     -73.64240000
H      -47.80530000     -33.99090000     -74.04390000
C      -46.56560000     -34.28940000     -72.25080000
H      -46.34240000     -33.91510000     -71.24150000
H      -47.11760000     -35.25420000     -72.13850000
C      -44.43930000     -35.07730000     -69.36060000
H      -45.46550000     -35.34050000     -69.55570000
H      -44.13770000     -35.62210000     -68.45730000
C      -43.62700000     -35.32820000     -70.58250000
C      -42.30430000     -35.70580000     -70.54420000
C      -44.03850000     -35.27790000     -71.99360000
H      -41.76350000     -35.92660000     -69.65770000
C      -42.95040000     -35.55270000     -72.88400000
C      -45.16800000     -34.78980000     -72.83230000
C      -44.93960000     -34.78400000     -74.15420000
S      -41.55030000     -36.10000000     -72.07760000
S      -43.35390000     -35.43500000     -74.61100000
H      -45.66220000     -34.50350000     -74.90120000
