40
Properties=species:S:1:pos:R:3 #=T CELL(abcABC):=T 1.889726e+02=T 90.00000=T Traj:=T positionsangstrom=T Step:=T 0=T Bead:=T pbc="F F F"
C      -47.42430000     -33.89690000     -70.18180000
C      -47.15290000     -35.07110000     -70.96360000
C      -47.08660000     -34.94700000     -72.35380000
C      -47.28270000     -33.71510000     -72.98070000
C      -47.64840000     -32.54370000     -72.25080000
C      -47.68540000     -32.61840000     -70.80630000
H      -47.35310000     -33.93720000     -69.13090000
H      -46.97940000     -35.78280000     -73.04150000
H      -47.79360000     -31.54820000     -72.60810000
H      -47.90090000     -31.70540000     -70.26460000
C      -47.09890000     -33.66900000     -74.49540000
H      -48.06730000     -33.21020000     -74.87780000
H      -47.13320000     -34.69810000     -74.87650000
C      -47.12060000     -36.40660000     -70.23180000
H      -48.03540000     -36.47170000     -69.72320000
H      -47.18180000     -37.19250000     -71.00640000
S      -45.50830000     -32.72010000     -74.90900000
S      -45.52700000     -36.46360000     -69.10790000
C      -44.31100000     -33.84310000     -74.18170000
H      -44.77430000     -34.45680000     -73.48260000
H      -43.86780000     -34.39260000     -74.98850000
C      -44.36380000     -36.30270000     -70.58550000
H      -44.90490000     -36.08910000     -71.56160000
H      -43.80590000     -37.21240000     -70.69690000
C      -43.29220000     -35.19100000     -70.49540000
H      -42.57260000     -35.53820000     -69.80680000
H      -42.89780000     -35.10290000     -71.49390000
C      -43.29790000     -33.08210000     -73.39430000
H      -42.84080000     -32.31940000     -74.01120000
H      -42.65420000     -33.84830000     -73.06860000
C      -43.89440000     -32.26280000     -72.24110000
C      -44.18820000     -30.92590000     -72.41500000
C      -43.95510000     -32.60720000     -70.81930000
H      -44.19170000     -30.43410000     -73.44080000
C      -44.32840000     -31.51260000     -70.06280000
C      -43.73820000     -33.77300000     -70.02920000
C      -44.04560000     -33.51590000     -68.72350000
S      -44.58050000     -30.01710000     -70.95060000
S      -44.67130000     -31.90390000     -68.39790000
H      -44.09360000     -34.23330000     -67.89490000
