40
Properties=species:S:1:pos:R:3 #=T CELL(abcABC):=T 1.889726e+02=T 90.00000=T Traj:=T positionsangstrom=T Step:=T 0=T Bead:=T pbc="F F F"
C      -46.54340000     -33.90070000     -69.43800000
C      -46.77290000     -35.09000000     -70.18330000
C      -47.38750000     -34.94280000     -71.42720000
C      -47.79100000     -33.63380000     -71.81820000
C      -47.62650000     -32.50830000     -71.02260000
C      -46.98920000     -32.67630000     -69.78430000
H      -46.05040000     -34.09210000     -68.43430000
H      -47.44460000     -35.71160000     -72.12010000
H      -48.06600000     -31.55980000     -71.45820000
H      -46.99810000     -31.78310000     -69.18540000
C      -48.36630000     -33.55040000     -73.18470000
H      -49.16230000     -32.75870000     -73.13280000
H      -48.75280000     -34.49360000     -73.60480000
C      -46.27130000     -36.41780000     -69.58190000
H      -46.44300000     -36.46380000     -68.49330000
H      -46.65090000     -37.26780000     -70.06620000
S      -47.15470000     -33.01580000     -74.50030000
S      -44.44900000     -36.64500000     -69.70110000
C      -45.65390000     -33.97950000     -74.18360000
H      -45.91040000     -34.56530000     -73.27900000
H      -45.42990000     -34.76430000     -74.88930000
C      -43.63150000     -36.11630000     -71.26940000
H      -44.39410000     -35.95090000     -72.06890000
H      -43.03840000     -36.91620000     -71.54240000
C      -42.70980000     -34.93110000     -71.23120000
H      -41.82260000     -35.13600000     -70.62570000
H      -42.25840000     -34.75050000     -72.17020000
C      -44.35790000     -33.16590000     -73.97710000
H      -44.23520000     -32.41600000     -74.76090000
H      -43.55910000     -33.83790000     -73.96130000
C      -44.42390000     -32.25420000     -72.70650000
C      -44.95320000     -30.97240000     -72.82840000
C      -44.04690000     -32.55550000     -71.34770000
H      -45.27990000     -30.47020000     -73.72670000
C      -44.13040000     -31.42000000     -70.54160000
C      -43.24580000     -33.58390000     -70.69170000
C      -43.03490000     -33.29280000     -69.35420000
S      -45.02340000     -30.12440000     -71.29560000
S      -43.62510000     -31.69650000     -68.97650000
H      -42.41110000     -33.87340000     -68.65750000
