40
Properties=species:S:1:pos:R:3 #=T CELL(abcABC):=T 1.889726e+02=T 90.00000=T Traj:=T positionsangstrom=T Step:=T 0=T Bead:=T pbc="F F F"
C      -46.75880000     -33.86220000     -69.36260000
C      -46.74100000     -35.06280000     -70.10030000
C      -47.28260000     -34.91560000     -71.44680000
C      -47.67320000     -33.64930000     -71.91950000
C      -47.63020000     -32.46480000     -71.11460000
C      -47.17170000     -32.60660000     -69.81380000
H      -46.24950000     -34.02450000     -68.34040000
H      -47.56440000     -35.78950000     -72.10960000
H      -47.81170000     -31.54810000     -71.67230000
H      -47.07870000     -31.74690000     -69.11150000
C      -48.16300000     -33.61560000     -73.29610000
H      -49.06550000     -33.01010000     -73.32860000
H      -48.43790000     -34.57660000     -73.63550000
C      -46.25020000     -36.36640000     -69.62560000
H      -46.76620000     -36.65030000     -68.68300000
H      -46.52150000     -37.16890000     -70.35820000
S      -47.00850000     -32.83540000     -74.50420000
S      -44.41130000     -36.47180000     -69.50660000
C      -45.52640000     -33.91450000     -74.27750000
H      -45.80050000     -34.59180000     -73.46290000
H      -45.42200000     -34.48390000     -75.18220000
C      -44.06280000     -35.93850000     -71.28140000
H      -44.89230000     -35.24280000     -71.51990000
H      -44.02050000     -36.86830000     -71.95210000
C      -42.86680000     -34.98060000     -71.28810000
H      -42.08980000     -35.46110000     -70.66790000
H      -42.42880000     -35.06130000     -72.30270000
C      -44.21610000     -33.25870000     -73.88670000
H      -43.90040000     -32.65580000     -74.77540000
H      -43.50160000     -34.16980000     -73.74440000
C      -44.37370000     -32.31980000     -72.75010000
C      -44.85020000     -31.02900000     -72.83380000
C      -43.90940000     -32.60860000     -71.42360000
H      -45.24790000     -30.62850000     -73.80090000
C      -44.12400000     -31.49970000     -70.59350000
C      -43.26330000     -33.65300000     -70.74350000
C      -43.04370000     -33.42120000     -69.40120000
S      -45.03410000     -30.16150000     -71.32030000
S      -43.77180000     -31.92200000     -68.88270000
H      -42.29550000     -33.94180000     -68.79860000
