40
Properties=species:S:1:pos:R:3 #=T CELL(abcABC):=T 1.889726e+02=T 90.00000=T Traj:=T positionsangstrom=T Step:=T 0=T Bead:=T pbc="F F F"
C      -47.19100000     -34.06570000     -69.72250000
C      -47.16040000     -35.11340000     -70.68190000
C      -47.33250000     -34.83120000     -72.05880000
C      -47.48320000     -33.52110000     -72.53740000
C      -47.52460000     -32.52290000     -71.56340000
C      -47.39180000     -32.76990000     -70.18170000
H      -46.86030000     -34.18290000     -68.69590000
H      -47.35590000     -35.64930000     -72.80090000
H      -47.61460000     -31.49300000     -71.74220000
H      -47.25180000     -31.92950000     -69.49410000
C      -47.66530000     -33.26360000     -73.97390000
H      -48.41680000     -32.49600000     -74.14430000
H      -48.02250000     -34.18790000     -74.38950000
C      -46.78870000     -36.50270000     -70.13100000
H      -47.38940000     -36.44940000     -69.15970000
H      -47.24030000     -37.30010000     -70.72760000
S      -46.04080000     -32.71500000     -74.76740000
S      -45.08130000     -36.57520000     -69.58740000
C      -44.76050000     -33.86730000     -74.04530000
H      -45.20380000     -34.35910000     -73.18470000
H      -44.54730000     -34.54400000     -74.83500000
C      -44.03360000     -36.16940000     -71.02460000
H      -44.75910000     -35.90130000     -71.79240000
H      -43.49680000     -37.10750000     -71.20390000
C      -43.03860000     -35.10250000     -70.71020000
H      -42.46160000     -35.42220000     -69.79790000
H      -42.35790000     -34.95030000     -71.57220000
C      -43.46740000     -33.11030000     -73.54670000
H      -42.98060000     -32.55560000     -74.31280000
H      -42.71260000     -33.81080000     -73.15950000
C      -43.92980000     -32.19660000     -72.44970000
C      -44.36740000     -30.89800000     -72.62470000
C      -43.98550000     -32.64060000     -71.04010000
H      -44.26330000     -30.37780000     -73.49750000
C      -44.48410000     -31.55720000     -70.25200000
C      -43.55020000     -33.73250000     -70.28520000
C      -43.72530000     -33.53820000     -68.92240000
S      -44.87040000     -30.09790000     -71.12570000
S      -44.33190000     -31.93770000     -68.53630000
H      -43.34100000     -34.15810000     -68.13960000
