40
Properties=species:S:1:pos:R:3 #=T CELL(abcABC):=T 1.889726e+02=T 90.00000=T Traj:=T positionsangstrom=T Step:=T 0=T Bead:=T pbc="F F F"
C      -43.89150000     -36.17050000     -69.98570000
C      -42.93540000     -35.20990000     -69.74620000
C      -42.19480000     -34.68510000     -70.83550000
C      -42.34480000     -35.12190000     -72.16770000
C      -43.34230000     -36.13410000     -72.37380000
C      -44.05700000     -36.65080000     -71.28010000
H      -44.34460000     -36.68120000     -69.11710000
H      -41.42770000     -33.98260000     -70.70450000
H      -43.45980000     -36.59570000     -73.38570000
H      -44.68750000     -37.52880000     -71.45800000
C      -41.62770000     -34.47490000     -73.29270000
H      -41.16910000     -35.09830000     -74.04200000
H      -40.89980000     -33.72020000     -72.94740000
C      -42.71540000     -34.79610000     -68.33030000
H      -43.24610000     -35.43840000     -67.49200000
H      -41.64650000     -34.76080000     -68.06640000
S      -42.82140000     -33.49340000     -74.22950000
S      -43.30980000     -33.02720000     -68.09890000
C      -44.14150000     -32.74470000     -73.18880000
H      -43.79620000     -32.56080000     -72.17480000
H      -44.32800000     -31.82380000     -73.65560000
C      -45.18690000     -32.91010000     -68.33010000
H      -45.31000000     -31.87690000     -68.04090000
H      -45.65970000     -33.48790000     -67.55110000
C      -45.60810000     -33.26130000     -69.76560000
H      -44.83640000     -33.13270000     -70.42290000
H      -45.75520000     -34.37490000     -69.84660000
C      -45.47720000     -33.60480000     -73.26040000
H      -45.37250000     -34.51310000     -72.53550000
H      -45.56620000     -33.96870000     -74.18100000
C      -46.72530000     -32.88750000     -72.88790000
C      -47.62670000     -32.62830000     -73.93950000
C      -47.29440000     -32.46080000     -71.53990000
H      -47.29150000     -32.81480000     -75.00160000
C      -48.53260000     -31.83830000     -71.66100000
C      -46.88280000     -32.57650000     -70.14820000
C      -47.79740000     -31.97750000     -69.28360000
S      -49.13700000     -31.75310000     -73.38240000
S      -49.23420000     -31.36340000     -70.13920000
H      -47.74350000     -31.87080000     -68.20940000
