40
Properties=species:S:1:pos:R:3 #=T CELL(abcABC):=T 1.889726e+02=T 90.00000=T Traj:=T positionsangstrom=T Step:=T 0=T Bead:=T pbc="F F F"
C      -46.39950000     -33.86800000     -68.79000000
C      -46.08990000     -34.98840000     -69.59790000
C      -46.89200000     -35.12920000     -70.70110000
C      -47.79450000     -34.23020000     -71.17780000
C      -48.03530000     -33.08940000     -70.43870000
C      -47.32440000     -32.92250000     -69.18710000
H      -45.88280000     -33.73360000     -67.82540000
H      -46.76160000     -36.11760000     -71.16320000
H      -48.61850000     -32.20370000     -70.78990000
H      -47.35980000     -32.01020000     -68.61750000
C      -48.54820000     -34.48160000     -72.46980000
H      -49.60450000     -34.11600000     -72.56510000
H      -48.70520000     -35.54320000     -72.54950000
C      -45.19850000     -36.20800000     -69.33840000
H      -45.14350000     -36.33110000     -68.25560000
H      -45.76020000     -37.08360000     -69.71630000
S      -47.61110000     -33.63460000     -73.87640000
S      -43.41480000     -36.18420000     -69.95280000
C      -45.85370000     -34.24900000     -73.90860000
H      -45.68160000     -34.54350000     -72.88970000
H      -45.69320000     -35.10150000     -74.56870000
C      -43.65870000     -35.72110000     -71.69240000
H      -44.70820000     -35.55400000     -71.74390000
H      -43.37890000     -36.54840000     -72.37100000
C      -42.79530000     -34.52510000     -72.05430000
H      -41.74440000     -34.71930000     -71.74330000
H      -42.75810000     -34.52800000     -73.22240000
C      -44.95090000     -33.09230000     -74.19350000
H      -45.25210000     -32.54950000     -75.08090000
H      -43.89570000     -33.39640000     -74.38490000
C      -45.04690000     -32.14110000     -72.97540000
C      -45.77870000     -30.99970000     -73.00160000
C      -44.15820000     -32.29890000     -71.85260000
H      -46.53380000     -30.59180000     -73.74750000
C      -44.38530000     -31.29740000     -70.88690000
C      -43.14310000     -33.20320000     -71.45040000
C      -42.64150000     -32.88530000     -70.22370000
S      -45.58110000     -30.09230000     -71.43140000
S      -43.31280000     -31.40110000     -69.48810000
H      -41.95840000     -33.49360000     -69.72020000
