40
Properties=species:S:1:pos:R:3 #=T CELL(abcABC):=T 1.889726e+02=T 90.00000=T Traj:=T positionsangstrom=T Step:=T 0=T Bead:=T pbc="F F F"
C      -46.57620000     -34.09990000     -68.91890000
C      -46.20730000     -35.11250000     -69.81980000
C      -46.87800000     -35.25420000     -71.10480000
C      -47.85770000     -34.32570000     -71.49000000
C      -47.96830000     -33.19340000     -70.64510000
C      -47.44390000     -33.11120000     -69.39270000
H      -46.11290000     -33.99100000     -67.90350000
H      -46.78060000     -36.16670000     -71.68100000
H      -48.62130000     -32.39550000     -70.91700000
H      -47.53360000     -32.23450000     -68.69320000
C      -48.54910000     -34.48430000     -72.81370000
H      -49.62080000     -34.38290000     -72.63730000
H      -48.33500000     -35.49160000     -73.27550000
C      -45.36160000     -36.28390000     -69.27220000
H      -45.50630000     -36.53090000     -68.20130000
H      -45.56870000     -37.18260000     -69.88740000
S      -47.86920000     -33.25370000     -74.01120000
S      -43.46940000     -35.96910000     -69.45570000
C      -46.18650000     -33.99140000     -74.04400000
H      -45.99810000     -34.53580000     -73.08730000
H      -46.08460000     -34.70500000     -74.86790000
C      -43.43900000     -35.83390000     -71.33940000
H      -44.50560000     -35.90400000     -71.61440000
H      -42.99140000     -36.70450000     -71.63390000
C      -42.71450000     -34.64830000     -71.96600000
H      -41.55660000     -34.79160000     -71.91230000
H      -42.96960000     -34.68840000     -73.05040000
C      -45.02810000     -33.04540000     -74.18310000
H      -45.04780000     -32.53890000     -75.13010000
H      -44.13770000     -33.61310000     -74.23520000
C      -44.84160000     -32.04960000     -73.01750000
C      -45.47650000     -30.84630000     -73.04100000
C      -44.03580000     -32.33090000     -71.80310000
H      -46.14790000     -30.52640000     -73.81710000
C      -44.14860000     -31.32770000     -70.90210000
C      -43.11260000     -33.37160000     -71.29670000
C      -42.73220000     -33.09930000     -69.98100000
S      -45.16490000     -29.97380000     -71.52320000
S      -43.46300000     -31.64820000     -69.31830000
H      -42.07340000     -33.79830000     -69.40970000
