40
Properties=species:S:1:pos:R:3 #=T CELL(abcABC):=T 1.889726e+02=T 90.00000=T Traj:=T positionsangstrom=T Step:=T 0=T Bead:=T pbc="F F F"
C      -46.09250000     -34.03280000     -68.90300000
C      -46.04500000     -35.24230000     -69.58940000
C      -46.80080000     -35.30410000     -70.76740000
C      -47.71390000     -34.28390000     -71.14220000
C      -47.68110000     -33.07000000     -70.41660000
C      -46.89440000     -32.91910000     -69.30860000
H      -45.59610000     -33.95350000     -67.98250000
H      -46.71370000     -36.27960000     -71.41740000
H      -48.45950000     -32.32300000     -70.66090000
H      -46.97450000     -32.05260000     -68.76170000
C      -48.59470000     -34.27230000     -72.44630000
H      -49.47960000     -33.66100000     -72.30800000
H      -48.79800000     -35.33840000     -72.64450000
C      -45.13790000     -36.29900000     -69.06380000
H      -44.92380000     -36.27290000     -67.95770000
H      -45.42850000     -37.30210000     -69.31150000
S      -47.91100000     -33.58890000     -74.05120000
S      -43.44070000     -36.08770000     -69.83030000
C      -46.17760000     -34.13820000     -74.12830000
H      -46.08320000     -34.59800000     -73.13370000
H      -46.11060000     -34.95460000     -74.86830000
C      -43.58360000     -35.68490000     -71.59730000
H      -44.59370000     -35.51000000     -71.88470000
H      -43.26130000     -36.53240000     -72.25520000
C      -42.67700000     -34.46730000     -72.02840000
H      -41.65090000     -34.69230000     -71.74070000
H      -42.72330000     -34.45290000     -73.10420000
C      -45.05810000     -33.07800000     -74.21770000
H      -45.29290000     -32.41790000     -75.04170000
H      -44.11190000     -33.55120000     -74.51540000
C      -45.01310000     -32.16740000     -72.96340000
C      -45.92590000     -31.15720000     -72.88890000
C      -44.08840000     -32.21440000     -71.86760000
H      -46.84440000     -31.00770000     -73.40740000
C      -44.34200000     -31.13760000     -70.93680000
C      -43.09230000     -33.16280000     -71.39170000
C      -42.64460000     -32.83690000     -70.14780000
S      -45.71280000     -30.23790000     -71.42070000
S      -43.29010000     -31.34100000     -69.51170000
H      -42.05150000     -33.43350000     -69.48960000
