40
Properties=species:S:1:pos:R:3 #=T CELL(abcABC):=T 1.889726e+02=T 90.00000=T Traj:=T positionsangstrom=T Step:=T 0=T Bead:=T pbc="F F F"
C      -45.88860000     -34.05060000     -68.96710000
C      -45.85730000     -35.23500000     -69.67820000
C      -46.82660000     -35.41920000     -70.71790000
C      -47.73580000     -34.42000000     -71.03800000
C      -47.75820000     -33.24400000     -70.24560000
C      -46.84550000     -33.02400000     -69.21150000
H      -45.06390000     -33.88200000     -68.26280000
H      -46.77750000     -36.34490000     -71.30270000
H      -48.53220000     -32.50800000     -70.60100000
H      -46.81990000     -32.15250000     -68.62100000
C      -48.68260000     -34.61200000     -72.20650000
H      -49.66670000     -34.22020000     -71.89870000
H      -48.71140000     -35.65980000     -72.48610000
C      -44.91290000     -36.43380000     -69.50430000
H      -45.05260000     -36.93270000     -68.56880000
H      -45.03860000     -37.23250000     -70.17890000
S      -48.16850000     -33.63730000     -73.63050000
S      -43.13080000     -35.97260000     -69.81260000
C      -46.48320000     -34.33440000     -73.99000000
H      -46.26170000     -35.10530000     -73.21700000
H      -46.60060000     -34.86980000     -74.92970000
C      -43.14850000     -35.64970000     -71.65200000
H      -44.20140000     -35.67510000     -72.06920000
H      -42.67050000     -36.44900000     -72.27000000
C      -42.43130000     -34.34190000     -71.91500000
H      -41.44630000     -34.36330000     -71.60410000
H      -42.36540000     -34.22910000     -72.99280000
C      -45.33590000     -33.28040000     -74.11760000
H      -45.44050000     -32.69670000     -75.06040000
H      -44.41370000     -33.84820000     -74.19780000
C      -45.24880000     -32.38150000     -72.94560000
C      -45.93080000     -31.23720000     -73.01130000
C      -44.30160000     -32.39230000     -71.77930000
H      -46.82130000     -31.18060000     -73.60050000
C      -44.54050000     -31.21540000     -71.03370000
C      -43.12100000     -33.08490000     -71.29630000
C      -42.53820000     -32.44170000     -70.20550000
S      -45.75030000     -30.10310000     -71.71390000
S      -43.34440000     -30.98530000     -69.72970000
H      -41.66920000     -32.85910000     -69.75760000
