40
Properties=species:S:1:pos:R:3 #=T CELL(abcABC):=T 1.889726e+02=T 90.00000=T Traj:=T positionsangstrom=T Step:=T 0=T Bead:=T pbc="F F F"
C      -43.65430000     -36.57810000     -69.96490000
C      -43.01180000     -35.32710000     -69.75580000
C      -42.61480000     -34.54980000     -70.87830000
C      -42.51860000     -35.10330000     -72.14620000
C      -43.08370000     -36.35570000     -72.30870000
C      -43.64040000     -37.07980000     -71.28860000
H      -44.01470000     -37.17120000     -69.18620000
H      -42.16420000     -33.59890000     -70.71340000
H      -43.03220000     -36.78660000     -73.31740000
H      -44.04020000     -38.08980000     -71.42590000
C      -41.85200000     -34.35090000     -73.33000000
H      -41.37040000     -35.05010000     -74.01800000
H      -41.01220000     -33.74580000     -72.97410000
C      -42.89930000     -34.76030000     -68.31280000
H      -43.63160000     -35.34780000     -67.70230000
H      -41.87730000     -34.87350000     -67.96430000
S      -43.04960000     -33.49320000     -74.38240000
S      -43.16340000     -32.98820000     -68.22370000
C      -44.25650000     -32.72010000     -73.20690000
H      -43.75070000     -32.43220000     -72.26620000
H      -44.65250000     -31.78060000     -73.66380000
C      -44.93490000     -32.76380000     -68.41890000
H      -45.35260000     -31.83910000     -67.97060000
H      -45.41640000     -33.57920000     -67.88810000
C      -45.43050000     -32.75000000     -69.87310000
H      -44.87140000     -31.94590000     -70.34700000
H      -45.15600000     -33.70170000     -70.39480000
C      -45.48170000     -33.60930000     -73.00940000
H      -45.26350000     -34.37830000     -72.23510000
H      -45.71580000     -34.10520000     -73.88140000
C      -46.74080000     -32.80260000     -72.73930000
C      -47.52460000     -32.49790000     -73.82090000
C      -47.31780000     -32.39580000     -71.53120000
H      -47.46140000     -32.84410000     -74.87120000
C      -48.57930000     -31.93470000     -71.61920000
C      -46.84620000     -32.47470000     -70.14370000
C      -47.86130000     -32.14060000     -69.25600000
S      -49.01000000     -31.57330000     -73.28420000
S      -49.32830000     -31.58450000     -70.10910000
H      -47.79420000     -32.15970000     -68.18320000
