40
Properties=species:S:1:pos:R:3 #=T CELL(abcABC):=T 1.889726e+02=T 90.00000=T Traj:=T positionsangstrom=T Step:=T 0=T Bead:=T pbc="F F F"
C      -47.39010000     -36.07570000     -68.94970000
C      -46.98610000     -36.17600000     -70.30380000
C      -45.63430000     -36.21000000     -70.54710000
C      -44.69350000     -36.14900000     -69.57220000
C      -45.09260000     -35.95340000     -68.19860000
C      -46.42280000     -35.97380000     -67.89260000
H      -48.42550000     -36.24050000     -68.74660000
H      -45.31810000     -36.15960000     -71.55780000
H      -44.24270000     -36.05310000     -67.52000000
H      -46.75240000     -36.01270000     -66.89580000
C      -43.22770000     -36.00910000     -69.94920000
H      -42.84430000     -36.86330000     -70.48520000
H      -42.50330000     -36.10780000     -69.03970000
C      -47.97690000     -36.43180000     -71.40350000
H      -47.32030000     -36.68140000     -72.25330000
H      -48.83500000     -37.21560000     -71.25290000
S      -42.91920000     -34.50580000     -70.86610000
S      -49.15570000     -34.92620000     -71.65720000
C      -42.97300000     -33.23220000     -69.49830000
H      -42.80880000     -33.73010000     -68.59550000
H      -42.11510000     -32.57880000     -69.67700000
C      -47.97860000     -33.76060000     -72.51540000
H      -48.47670000     -32.91510000     -73.03000000
H      -47.65880000     -34.44540000     -73.38030000
C      -46.87610000     -33.05120000     -71.72190000
H      -47.18710000     -32.43120000     -70.83490000
H      -46.05230000     -33.63580000     -71.30680000
C      -44.36090000     -32.37860000     -69.61300000
H      -44.47140000     -31.86040000     -68.60960000
H      -45.25080000     -33.03360000     -69.68820000
C      -44.26920000     -31.40860000     -70.80150000
C      -43.13440000     -30.60340000     -70.83120000
C      -44.92430000     -31.34810000     -72.06240000
H      -42.34290000     -30.52820000     -70.08200000
C      -44.34390000     -30.51330000     -72.94670000
C      -46.08530000     -32.08050000     -72.63790000
C      -46.24710000     -31.75280000     -73.99590000
S      -42.83940000     -29.86020000     -72.34270000
S      -45.02790000     -30.59430000     -74.54900000
H      -47.05610000     -32.01760000     -74.65510000
