40
Properties=species:S:1:pos:R:3 #=T CELL(abcABC):=T 1.889726e+02=T 90.00000=T Traj:=T positionsangstrom=T Step:=T 0=T Bead:=T pbc="F F F"
C      -48.51350000     -30.55910000     -71.07840000
C      -48.15240000     -31.56800000     -70.15070000
C      -46.85010000     -31.43090000     -69.55100000
C      -46.08970000     -30.24620000     -69.66420000
C      -46.58430000     -29.24000000     -70.58440000
C      -47.72910000     -29.41700000     -71.27450000
H      -49.46660000     -30.72290000     -71.66910000
H      -46.47040000     -32.25930000     -69.02170000
H      -46.10070000     -28.32230000     -70.69770000
H      -47.98210000     -28.73610000     -72.06120000
C      -44.74150000     -30.03880000     -68.98880000
H      -44.77030000     -30.81570000     -68.18180000
H      -44.50480000     -28.98200000     -68.72850000
C      -49.06850000     -32.76520000     -69.71370000
H      -48.72470000     -33.17610000     -68.82100000
H      -50.11010000     -32.45030000     -69.59930000
S      -43.36620000     -30.39600000     -70.19630000
S      -49.19700000     -34.00870000     -71.07170000
C      -43.56420000     -32.19210000     -70.53520000
H      -42.64950000     -32.80740000     -70.23940000
H      -44.49240000     -32.58680000     -70.03030000
C      -47.63450000     -34.96700000     -71.00770000
H      -47.89200000     -35.92220000     -71.39940000
H      -47.39780000     -35.21060000     -69.93750000
C      -46.43810000     -34.32110000     -71.64310000
H      -46.63220000     -33.79400000     -72.54590000
H      -46.06430000     -33.57100000     -70.89300000
C      -43.66710000     -32.42650000     -72.10790000
H      -42.99270000     -31.71800000     -72.57340000
H      -44.66740000     -32.27610000     -72.46020000
C      -43.22990000     -33.83170000     -72.46800000
C      -41.93210000     -34.07420000     -72.81530000
C      -43.96310000     -35.08590000     -72.27910000
H      -41.19250000     -33.43150000     -73.15720000
C      -43.22900000     -36.20450000     -72.57730000
C      -45.32200000     -35.39430000     -71.90740000
C      -45.53280000     -36.75120000     -71.81820000
S      -41.67740000     -35.87880000     -73.27000000
S      -44.06490000     -37.65220000     -72.17640000
H      -46.42120000     -37.22700000     -71.38280000
