40
Properties=species:S:1:pos:R:3 #=T CELL(abcABC):=T 1.889726e+02=T 90.00000=T Traj:=T positionsangstrom=T Step:=T 0=T Bead:=T pbc="F F F"
C      -48.72810000     -30.51690000     -70.46410000
C      -48.04210000     -31.56140000     -69.82590000
C      -46.67570000     -31.36240000     -69.52590000
C      -46.06090000     -30.14610000     -69.66070000
C      -46.77040000     -29.11180000     -70.23700000
C      -48.07810000     -29.26400000     -70.55400000
H      -49.69800000     -30.56470000     -70.88780000
H      -46.04380000     -32.15680000     -69.08310000
H      -46.34250000     -28.09380000     -70.36600000
H      -48.68080000     -28.50660000     -70.97390000
C      -44.63950000     -29.88340000     -69.20840000
H      -44.39950000     -30.51050000     -68.34400000
H      -44.56390000     -28.81850000     -68.97310000
C      -48.62990000     -32.96640000     -69.78370000
H      -47.87680000     -33.64800000     -69.33980000
H      -49.53090000     -32.86910000     -69.21250000
S      -43.47860000     -30.31760000     -70.56350000
S      -49.06630000     -33.58990000     -71.51830000
C      -43.51680000     -32.13340000     -70.70520000
H      -42.59430000     -32.55940000     -70.37930000
H      -44.27970000     -32.55460000     -70.06380000
C      -47.79840000     -34.97690000     -71.50970000
H      -47.98740000     -35.54350000     -72.46970000
H      -48.07440000     -35.72120000     -70.77350000
C      -46.33710000     -34.59850000     -71.24740000
H      -46.09330000     -33.70800000     -71.84840000
H      -46.09460000     -34.13390000     -70.23440000
C      -43.70010000     -32.55030000     -72.14020000
H      -43.00400000     -31.96320000     -72.78610000
H      -44.73420000     -32.29980000     -72.52170000
C      -43.32340000     -33.95640000     -72.45110000
C      -41.99130000     -34.12570000     -72.86390000
C      -44.00840000     -35.17750000     -72.15460000
H      -41.35860000     -33.28620000     -73.19090000
C      -43.22550000     -36.28740000     -72.53700000
C      -45.31680000     -35.62920000     -71.59350000
C      -45.48490000     -36.99840000     -71.70420000
S      -41.65140000     -35.90690000     -73.11940000
S      -44.10390000     -37.83090000     -72.27730000
H      -46.32080000     -37.58830000     -71.45760000
