40
Properties=species:S:1:pos:R:3 #=T CELL(abcABC):=T 1.889726e+02=T 90.00000=T Traj:=T positionsangstrom=T Step:=T 0=T Bead:=T pbc="F F F"
C      -48.80560000     -30.40720000     -70.08830000
C      -48.04970000     -31.60340000     -69.88230000
C      -46.68760000     -31.47230000     -69.60340000
C      -46.08190000     -30.21430000     -69.52590000
C      -46.84490000     -29.04140000     -69.70070000
C      -48.16400000     -29.17910000     -70.05260000
H      -49.75730000     -30.66410000     -70.59830000
H      -46.15040000     -32.39740000     -69.48580000
H      -46.38790000     -28.11780000     -69.40310000
H      -48.85190000     -28.32060000     -70.06500000
C      -44.61500000     -30.19350000     -69.22450000
H      -44.20490000     -30.88960000     -68.43870000
H      -44.32780000     -29.18630000     -68.88610000
C      -48.79270000     -32.89600000     -69.90000000
H      -48.31250000     -33.68810000     -69.30460000
H      -49.76490000     -32.76160000     -69.42460000
S      -43.71120000     -30.24490000     -70.87570000
S      -49.19830000     -33.65640000     -71.57240000
C      -43.33620000     -32.05620000     -70.90870000
H      -42.26610000     -32.16840000     -70.65530000
H      -43.93940000     -32.53570000     -70.14010000
C      -47.80190000     -34.90500000     -71.56990000
H      -47.98290000     -35.49220000     -72.45060000
H      -47.98560000     -35.61050000     -70.72080000
C      -46.39420000     -34.37210000     -71.58720000
H      -46.34760000     -33.63530000     -72.40040000
H      -46.15540000     -33.89310000     -70.62870000
C      -43.51990000     -32.60640000     -72.34840000
H      -42.94330000     -32.02070000     -73.04190000
H      -44.55600000     -32.55580000     -72.67080000
C      -43.00470000     -33.99360000     -72.51210000
C      -41.74340000     -34.29650000     -72.94290000
C      -43.88420000     -35.16770000     -72.28820000
H      -40.87280000     -33.69920000     -73.14990000
C      -43.16460000     -36.32970000     -72.40520000
C      -45.26660000     -35.45760000     -71.77640000
C      -45.55690000     -36.79570000     -71.75370000
S      -41.54550000     -36.09520000     -73.02410000
S      -44.08670000     -37.73470000     -72.04400000
H      -46.49760000     -37.23410000     -71.38520000
