40
Properties=species:S:1:pos:R:3 #=T CELL(abcABC):=T 1.889726e+02=T 90.00000=T Traj:=T positionsangstrom=T Step:=T 0=T Bead:=T pbc="F F F"
C      -48.30470000     -30.86380000     -71.34860000
C      -48.16070000     -31.57290000     -70.12040000
C      -47.00240000     -31.36490000     -69.34890000
C      -46.01910000     -30.43330000     -69.82190000
C      -46.17030000     -29.78590000     -71.02570000
C      -47.37500000     -29.93840000     -71.74230000
H      -49.16950000     -30.99350000     -71.95240000
H      -46.81300000     -31.89820000     -68.38470000
H      -45.33890000     -29.08100000     -71.33780000
H      -47.59970000     -29.37840000     -72.65750000
C      -44.82030000     -30.29080000     -68.97740000
H      -44.83640000     -31.02580000     -68.06280000
H      -44.78630000     -29.24220000     -68.50870000
C      -49.21340000     -32.57800000     -69.75860000
H      -49.00930000     -33.07570000     -68.81960000
H      -50.07690000     -32.05680000     -69.85230000
S      -43.26980000     -30.52290000     -69.99140000
S      -49.32250000     -33.87980000     -71.05430000
C      -43.38730000     -32.19260000     -70.58740000
H      -42.31980000     -32.57070000     -70.56610000
H      -44.00620000     -32.86060000     -69.91700000
C      -47.73740000     -34.83550000     -70.89220000
H      -47.89720000     -35.83500000     -71.36650000
H      -47.54730000     -34.95450000     -69.83730000
C      -46.43220000     -34.29150000     -71.46700000
H      -46.69730000     -33.65870000     -72.37280000
H      -46.06620000     -33.62720000     -70.73260000
C      -43.90190000     -32.36560000     -72.04030000
H      -43.34330000     -31.58320000     -72.63430000
H      -44.98790000     -32.05210000     -72.07970000
C      -43.47380000     -33.72050000     -72.47430000
C      -42.15710000     -33.83440000     -73.00680000
C      -44.09570000     -34.99050000     -72.28340000
H      -41.45480000     -32.95320000     -73.15800000
C      -43.22260000     -36.07390000     -72.43380000
C      -45.40090000     -35.37680000     -71.79980000
C      -45.52990000     -36.78940000     -71.83990000
S      -41.66790000     -35.63480000     -73.18690000
S      -43.99050000     -37.59660000     -72.16490000
H      -46.38640000     -37.40080000     -71.66510000
