40
Properties=species:S:1:pos:R:3 #=T CELL(abcABC):=T 1.889726e+02=T 90.00000=T Traj:=T positionsangstrom=T Step:=T 0=T Bead:=T pbc="F F F"
C      -43.45110000     -36.59490000     -70.00700000
C      -42.99140000     -35.25050000     -69.83780000
C      -42.49690000     -34.57470000     -70.91800000
C      -42.49160000     -35.08420000     -72.22600000
C      -42.94360000     -36.36230000     -72.42120000
C      -43.37810000     -37.16200000     -71.30930000
H      -43.89610000     -37.24370000     -69.21040000
H      -42.09380000     -33.56500000     -70.76550000
H      -42.87410000     -36.90940000     -73.34260000
H      -43.68100000     -38.26370000     -71.42430000
C      -41.78840000     -34.23060000     -73.30220000
H      -41.09040000     -34.77570000     -73.89710000
H      -41.36950000     -33.34920000     -72.77140000
C      -42.88260000     -34.78810000     -68.37520000
H      -43.49550000     -35.42270000     -67.74550000
H      -41.92280000     -34.90750000     -67.93730000
S      -42.95930000     -33.53120000     -74.56390000
S      -43.25530000     -32.93360000     -68.07950000
C      -44.25870000     -32.56410000     -73.63280000
H      -43.83750000     -32.14810000     -72.71740000
H      -44.48270000     -31.76260000     -74.33870000
C      -45.15150000     -32.78110000     -68.21980000
H      -45.47260000     -31.81830000     -67.89500000
H      -45.66250000     -33.52100000     -67.52040000
C      -45.47630000     -32.99490000     -69.66740000
H      -44.73810000     -32.46920000     -70.29050000
H      -45.30500000     -34.10890000     -70.00750000
C      -45.50330000     -33.40210000     -73.16670000
H      -45.16090000     -34.19400000     -72.31310000
H      -45.70560000     -34.01600000     -74.01620000
C      -46.78350000     -32.69480000     -72.80520000
C      -47.69790000     -32.41950000     -73.77560000
C      -47.33550000     -32.39400000     -71.48450000
H      -47.54330000     -32.41660000     -74.85310000
C      -48.63970000     -31.92970000     -71.53940000
C      -46.80190000     -32.48700000     -70.08810000
C      -47.79260000     -32.01670000     -69.23770000
S      -49.21600000     -31.83980000     -73.21010000
S      -49.27910000     -31.52300000     -69.98560000
H      -47.77900000     -32.07040000     -68.17020000
