40
Properties=species:S:1:pos:R:3 #=T CELL(abcABC):=T 1.889726e+02=T 90.00000=T Traj:=T positionsangstrom=T Step:=T 0=T Bead:=T pbc="F F F"
C      -48.40950000     -30.67930000     -71.23630000
C      -48.17490000     -31.59480000     -70.16080000
C      -46.98860000     -31.37420000     -69.44270000
C      -46.07110000     -30.30630000     -69.70720000
C      -46.34780000     -29.44010000     -70.78770000
C      -47.52140000     -29.66350000     -71.50820000
H      -49.25550000     -30.86280000     -71.90230000
H      -46.82960000     -31.96280000     -68.50180000
H      -45.61230000     -28.65940000     -71.07190000
H      -47.76880000     -28.99280000     -72.27210000
C      -44.78050000     -30.22680000     -68.93830000
H      -44.67050000     -30.78320000     -68.07870000
H      -44.60730000     -29.22040000     -68.55610000
C      -49.07220000     -32.70860000     -69.83680000
H      -48.74230000     -33.30250000     -68.92190000
H      -50.05050000     -32.35170000     -69.34780000
S      -43.27670000     -30.40130000     -70.01060000
S      -49.23500000     -33.98060000     -71.15630000
C      -43.51600000     -32.14570000     -70.57330000
H      -42.73020000     -32.69440000     -70.17450000
H      -44.37060000     -32.51110000     -70.01750000
C      -47.76010000     -35.05920000     -70.89100000
H      -48.16120000     -36.06550000     -71.34290000
H      -47.51160000     -35.13790000     -69.88030000
C      -46.60720000     -34.50110000     -71.69160000
H      -46.93950000     -34.40520000     -72.75070000
H      -46.36770000     -33.48700000     -71.33240000
C      -43.68090000     -32.27670000     -72.14260000
H      -43.05610000     -31.57740000     -72.69780000
H      -44.69490000     -31.99710000     -72.43790000
C      -43.35670000     -33.71210000     -72.48090000
C      -42.08630000     -34.05960000     -73.02170000
C      -44.07290000     -34.99160000     -72.28360000
H      -41.21660000     -33.40420000     -73.12270000
C      -43.24400000     -36.10810000     -72.52980000
C      -45.39580000     -35.38990000     -71.77550000
C      -45.50200000     -36.76540000     -71.63690000
S      -41.56070000     -35.71610000     -73.09770000
S      -44.09020000     -37.63380000     -72.26450000
H      -46.36740000     -37.25090000     -71.16930000
