40
Properties=species:S:1:pos:R:3 #=T CELL(abcABC):=T 1.889726e+02=T 90.00000=T Traj:=T positionsangstrom=T Step:=T 0=T Bead:=T pbc="F F F"
C      -48.18560000     -30.96050000     -71.37670000
C      -47.87000000     -31.63620000     -70.21040000
C      -46.70050000     -31.21820000     -69.47500000
C      -45.87470000     -30.23480000     -69.89630000
C      -46.23500000     -29.55530000     -71.08390000
C      -47.34360000     -29.94530000     -71.80250000
H      -49.12920000     -31.21340000     -71.85370000
H      -46.45390000     -31.78040000     -68.61330000
H      -45.56160000     -28.81570000     -71.59210000
H      -47.63930000     -29.37070000     -72.70390000
C      -44.50860000     -29.86940000     -69.22740000
H      -44.33210000     -30.33340000     -68.26150000
H      -44.43160000     -28.78580000     -69.10600000
C      -48.63960000     -32.69790000     -69.51270000
H      -47.88080000     -33.23440000     -68.94850000
H      -49.37010000     -32.29290000     -68.87700000
S      -43.04580000     -30.26940000     -70.22080000
S      -49.31480000     -33.93920000     -70.81780000
C      -42.93400000     -32.06920000     -70.40330000
H      -41.94980000     -32.32260000     -70.83130000
H      -43.29800000     -32.63870000     -69.50790000
C      -47.96740000     -35.29860000     -70.73030000
H      -48.17420000     -35.93740000     -71.58980000
H      -47.95970000     -35.94000000     -69.89520000
C      -46.58810000     -34.63670000     -70.96210000
H      -46.70450000     -33.74320000     -71.54360000
H      -46.17640000     -34.30950000     -70.02440000
C      -43.92420000     -32.50730000     -71.61180000
H      -43.84570000     -31.67470000     -72.33060000
H      -44.98170000     -32.51530000     -71.26020000
C      -43.47690000     -33.83900000     -72.18870000
C      -42.26390000     -33.92820000     -72.76920000
C      -44.24270000     -35.03120000     -72.16330000
H      -41.56070000     -33.08700000     -72.94180000
C      -43.50860000     -36.05340000     -72.67610000
C      -45.59270000     -35.49260000     -71.72250000
C      -45.78310000     -36.80850000     -72.08160000
S      -41.92260000     -35.59150000     -73.25910000
S      -44.32700000     -37.61470000     -72.58050000
H      -46.56650000     -37.47350000     -71.53740000
