40
Properties=species:S:1:pos:R:3 #=T CELL(abcABC):=T 1.889726e+02=T 90.00000=T Traj:=T positionsangstrom=T Step:=T 0=T Bead:=T pbc="F F F"
C      -45.07090000     -29.38930000     -70.98300000
C      -45.24130000     -30.09070000     -72.18880000
C      -46.39810000     -30.80650000     -72.39030000
C      -47.38610000     -30.92100000     -71.40780000
C      -47.21060000     -30.18320000     -70.25570000
C      -46.07250000     -29.40710000     -70.02670000
H      -44.18620000     -28.68470000     -70.90020000
H      -46.56410000     -31.16730000     -73.40740000
H      -48.07700000     -30.04950000     -69.54680000
H      -45.93750000     -28.78910000     -69.16470000
C      -48.61120000     -31.72000000     -71.63690000
H      -48.55070000     -32.41000000     -72.45610000
H      -49.56030000     -31.15580000     -71.89030000
C      -44.15820000     -29.99220000     -73.26480000
H      -44.39270000     -29.09870000     -73.81380000
H      -43.16840000     -29.91140000     -72.85120000
S      -48.87570000     -32.62300000     -70.10940000
S      -44.11030000     -31.43850000     -74.43830000
C      -47.36100000     -33.62150000     -69.85030000
H      -46.65850000     -32.85710000     -69.71490000
H      -47.49320000     -34.38010000     -69.07200000
C      -43.32860000     -32.67800000     -73.41630000
H      -42.57750000     -32.19660000     -72.71530000
H      -42.72220000     -33.38370000     -73.99910000
C      -44.36860000     -33.55370000     -72.66190000
H      -44.92550000     -32.94000000     -71.92470000
H      -45.08420000     -33.94130000     -73.39050000
C      -47.01820000     -34.57660000     -71.07020000
H      -46.66960000     -33.92340000     -71.82390000
H      -47.96230000     -35.03200000     -71.32490000
C      -45.96010000     -35.59830000     -70.63840000
C      -46.19810000     -36.67860000     -69.85800000
C      -44.54820000     -35.51580000     -70.98460000
H      -47.14530000     -37.00530000     -69.47910000
C      -43.75750000     -36.43390000     -70.31380000
C      -43.75260000     -34.68940000     -71.82320000
C      -42.37840000     -34.94420000     -71.68580000
S      -44.70470000     -37.62020000     -69.47750000
S      -42.06090000     -36.23230000     -70.57090000
H      -41.62180000     -34.36380000     -72.17580000
