40
Properties=species:S:1:pos:R:3 #=T CELL(abcABC):=T 1.889726e+02=T 90.00000=T Traj:=T positionsangstrom=T Step:=T 0=T Bead:=T pbc="F F F"
C      -48.26170000     -30.92820000     -71.35700000
C      -47.96030000     -31.65930000     -70.16720000
C      -46.77570000     -31.31590000     -69.46510000
C      -45.82830000     -30.36480000     -69.94000000
C      -46.12040000     -29.83230000     -71.19380000
C      -47.36610000     -30.00030000     -71.79900000
H      -49.13330000     -31.28110000     -71.87760000
H      -46.59710000     -31.77520000     -68.56490000
H      -45.46160000     -29.14080000     -71.66670000
H      -47.47260000     -29.56970000     -72.77990000
C      -44.60140000     -29.99480000     -69.14830000
H      -44.61730000     -30.51060000     -68.19530000
H      -44.72210000     -28.93150000     -68.88020000
C      -48.91980000     -32.63170000     -69.68890000
H      -48.53750000     -33.14260000     -68.71210000
H      -49.90870000     -32.25230000     -69.43100000
S      -42.98550000     -30.24420000     -70.02290000
S      -49.35440000     -33.93550000     -70.88840000
C      -43.04130000     -32.02320000     -70.46020000
H      -42.00370000     -32.38060000     -70.49460000
H      -43.42330000     -32.48870000     -69.56950000
C      -47.87400000     -35.07480000     -71.05510000
H      -48.14650000     -35.65450000     -72.01930000
H      -47.93950000     -35.78650000     -70.21900000
C      -46.43120000     -34.44950000     -71.12830000
H      -46.37400000     -33.59100000     -71.91850000
H      -46.20380000     -34.12030000     -70.12390000
C      -43.90790000     -32.40720000     -71.68180000
H      -43.65290000     -31.79720000     -72.51780000
H      -44.97400000     -32.30900000     -71.51020000
C      -43.50020000     -33.79690000     -72.21600000
C      -42.31410000     -33.93800000     -72.88100000
C      -44.16030000     -35.04310000     -72.18400000
H      -41.52710000     -33.23150000     -72.82260000
C      -43.45800000     -36.11830000     -72.67550000
C      -45.37010000     -35.43330000     -71.46480000
C      -45.56710000     -36.77500000     -71.61880000
S      -41.94550000     -35.63580000     -73.28500000
S      -44.35520000     -37.60650000     -72.56160000
H      -46.51420000     -37.22390000     -71.19290000
