40
Properties=species:S:1:pos:R:3 #=T CELL(abcABC):=T 1.889726e+02=T 90.00000=T Traj:=T positionsangstrom=T Step:=T 0=T Bead:=T pbc="F F F"
C      -48.19090000     -30.98220000     -71.10300000
C      -47.66370000     -31.57550000     -69.94360000
C      -46.50750000     -31.10680000     -69.44270000
C      -45.74770000     -30.07590000     -70.01760000
C      -46.19890000     -29.45660000     -71.17610000
C      -47.47480000     -29.88320000     -71.67950000
H      -49.12410000     -31.38620000     -71.55270000
H      -46.10970000     -31.61840000     -68.51740000
H      -45.66510000     -28.76050000     -71.76210000
H      -47.91660000     -29.36770000     -72.51720000
C      -44.41120000     -29.77120000     -69.38810000
H      -44.37630000     -30.28450000     -68.43310000
H      -44.39290000     -28.70170000     -69.24360000
C      -48.39120000     -32.78880000     -69.31570000
H      -47.65370000     -33.48980000     -68.87500000
H      -49.10540000     -32.60120000     -68.52530000
S      -42.99580000     -30.12440000     -70.49120000
S      -49.31050000     -33.86750000     -70.51810000
C      -42.87410000     -31.95640000     -70.52890000
H      -41.79060000     -32.25720000     -70.73320000
H      -43.08190000     -32.44960000     -69.49970000
C      -47.98870000     -35.12350000     -70.85850000
H      -48.37210000     -35.67500000     -71.66980000
H      -47.90520000     -35.72360000     -69.98580000
C      -46.67930000     -34.50270000     -71.21600000
H      -46.77290000     -33.59340000     -71.76850000
H      -46.13920000     -34.25160000     -70.36110000
C      -43.81620000     -32.60180000     -71.57730000
H      -43.88210000     -31.81380000     -72.33400000
H      -44.80680000     -32.62270000     -71.08670000
C      -43.45620000     -33.93900000     -72.09680000
C      -42.13060000     -34.20080000     -72.44400000
C      -44.30680000     -35.13750000     -72.06450000
H      -41.35490000     -33.42380000     -72.42520000
C      -43.60290000     -36.26860000     -72.59790000
C      -45.68220000     -35.43610000     -71.94880000
C      -46.00080000     -36.73780000     -72.35400000
S      -41.96620000     -35.84440000     -73.02690000
S      -44.54920000     -37.67590000     -72.88650000
H      -46.98520000     -37.18130000     -72.39160000
