40
Properties=species:S:1:pos:R:3 #=T CELL(abcABC):=T 1.889726e+02=T 90.00000=T Traj:=T positionsangstrom=T Step:=T 0=T Bead:=T pbc="F F F"
C      -48.19350000     -30.91740000     -70.88270000
C      -47.59360000     -31.58090000     -69.77790000
C      -46.32020000     -31.19810000     -69.32270000
C      -45.62550000     -30.15820000     -69.96650000
C      -46.20830000     -29.52800000     -71.10360000
C      -47.46780000     -29.89910000     -71.56920000
H      -49.13680000     -31.28950000     -71.23580000
H      -45.96250000     -31.72740000     -68.44210000
H      -45.62040000     -28.77050000     -71.68690000
H      -47.87240000     -29.48270000     -72.49500000
C      -44.28570000     -29.65190000     -69.55510000
H      -43.99780000     -30.04370000     -68.55290000
H      -44.21770000     -28.53390000     -69.55650000
C      -48.48490000     -32.67710000     -69.00640000
H      -47.81030000     -33.23630000     -68.34740000
H      -49.31910000     -32.26440000     -68.47180000
S      -42.90120000     -30.08840000     -70.69270000
S      -49.30200000     -33.78160000     -70.25140000
C      -42.82980000     -31.98550000     -70.68200000
H      -41.85530000     -32.18050000     -71.01850000
H      -43.06820000     -32.28150000     -69.71870000
C      -48.05110000     -34.93980000     -71.01740000
H      -48.53100000     -35.53100000     -71.89630000
H      -47.77520000     -35.76560000     -70.34150000
C      -46.76070000     -34.36420000     -71.57330000
H      -47.17130000     -33.72580000     -72.44760000
H      -46.33350000     -33.70120000     -70.83760000
C      -43.78790000     -32.62110000     -71.64030000
H      -43.95120000     -32.07980000     -72.55410000
H      -44.74750000     -32.74690000     -71.12000000
C      -43.38320000     -33.99370000     -72.09270000
C      -42.06040000     -34.39670000     -72.32950000
C      -44.32980000     -35.16040000     -72.23610000
H      -41.20250000     -33.75600000     -72.34290000
C      -43.68200000     -36.28590000     -72.77910000
C      -45.72840000     -35.38610000     -72.03790000
C      -46.07250000     -36.70770000     -72.27790000
S      -41.94550000     -36.06560000     -72.88810000
S      -44.76360000     -37.64360000     -73.00340000
H      -47.05410000     -37.05840000     -72.23020000
