40
Properties=species:S:1:pos:R:3 #=T CELL(abcABC):=T 1.889726e+02=T 90.00000=T Traj:=T positionsangstrom=T Step:=T 0=T Bead:=T pbc="F F F"
C      -43.21350000     -35.91710000     -72.50410000
C      -43.38040000     -35.80190000     -71.12040000
C      -44.44770000     -36.44050000     -70.52300000
C      -45.58630000     -36.78440000     -71.29460000
C      -45.49100000     -36.71280000     -72.68200000
C      -44.30280000     -36.39960000     -73.35780000
H      -42.30810000     -35.64290000     -72.94760000
H      -44.37960000     -36.47840000     -69.46520000
H      -46.41850000     -36.96180000     -73.30280000
H      -44.23020000     -36.47760000     -74.45780000
C      -46.95040000     -37.15100000     -70.79210000
H      -46.98470000     -38.21080000     -70.43330000
H      -47.74130000     -37.16060000     -71.57510000
C      -42.17570000     -35.23060000     -70.37350000
H      -42.36920000     -35.14510000     -69.29410000
H      -41.45910000     -36.11750000     -70.54500000
S      -47.56160000     -36.09020000     -69.37760000
S      -41.27880000     -33.75530000     -71.08210000
C      -47.85000000     -34.46070000     -70.27640000
H      -48.71260000     -34.48950000     -70.96420000
H      -48.19730000     -33.72540000     -69.46540000
C      -42.65230000     -32.63920000     -71.56910000
H      -43.25800000     -33.16410000     -72.35590000
H      -42.33000000     -31.77380000     -72.14030000
C      -43.56040000     -32.15600000     -70.41710000
H      -44.10430000     -32.89070000     -69.86110000
H      -42.86930000     -31.71600000     -69.69100000
C      -46.59520000     -33.85890000     -70.93260000
H      -46.26090000     -34.57440000     -71.71720000
H      -45.79550000     -33.84550000     -70.20120000
C      -46.88910000     -32.48500000     -71.41000000
C      -48.08820000     -32.13210000     -71.95390000
C      -45.95000000     -31.36110000     -71.37040000
H      -48.89710000     -32.87080000     -71.99440000
C      -46.59360000     -30.26000000     -71.89240000
C      -44.55080000     -31.15830000     -70.94320000
C      -44.18220000     -29.87400000     -71.30050000
S      -48.21580000     -30.41710000     -72.37500000
S      -45.50710000     -28.91710000     -71.92240000
H      -43.32230000     -29.31280000     -71.05980000
