40
Properties=species:S:1:pos:R:3 #=T CELL(abcABC):=T 1.889726e+02=T 90.00000=T Traj:=T positionsangstrom=T Step:=T 0=T Bead:=T pbc="F F F"
C      -45.80970000     -34.02630000     -73.42630000
C      -45.23210000     -35.11200000     -72.79440000
C      -45.89720000     -35.83390000     -71.81670000
C      -47.14370000     -35.38130000     -71.37370000
C      -47.80700000     -34.28030000     -72.03730000
C      -47.05100000     -33.57090000     -73.00950000
H      -45.26000000     -33.45940000     -74.20100000
H      -45.42980000     -36.66420000     -71.32980000
H      -48.84930000     -33.88880000     -71.80830000
H      -47.40290000     -32.62680000     -73.47230000
C      -47.82140000     -36.03990000     -70.13180000
H      -47.28030000     -36.97180000     -69.85600000
H      -48.84440000     -36.32250000     -70.26380000
C      -43.90210000     -35.70990000     -73.37180000
H      -43.50740000     -36.51090000     -72.74280000
H      -44.16480000     -36.27290000     -74.27730000
S      -47.88650000     -34.73080000     -68.93770000
S      -42.64640000     -34.37260000     -73.79480000
C      -46.24280000     -34.70400000     -68.10900000
H      -46.40780000     -34.38000000     -67.05370000
H      -45.91900000     -35.66280000     -67.98620000
C      -41.78630000     -34.26590000     -72.18010000
H      -40.91590000     -33.65760000     -72.33680000
H      -41.36350000     -35.21500000     -71.92000000
C      -42.63880000     -33.71200000     -71.05840000
H      -43.30410000     -34.51520000     -70.75830000
H      -42.09710000     -33.35780000     -70.19020000
C      -45.11580000     -33.91440000     -68.76530000
H      -44.74760000     -34.54880000     -69.53330000
H      -44.31680000     -33.67380000     -68.04800000
C      -45.44790000     -32.71110000     -69.61810000
C      -46.50860000     -31.87530000     -69.30820000
C      -44.68140000     -32.19580000     -70.66960000
H      -47.12190000     -32.02480000     -68.42460000
C      -45.30580000     -31.09290000     -71.25270000
C      -43.53970000     -32.57630000     -71.48490000
C      -43.18300000     -31.61850000     -72.46240000
S      -46.71520000     -30.58520000     -70.43030000
S      -44.33410000     -30.28410000     -72.41420000
H      -42.29100000     -31.82390000     -73.14600000
