40
Properties=species:S:1:pos:R:3 #=T CELL(abcABC):=T 1.889726e+02=T 90.00000=T Traj:=T positionsangstrom=T Step:=T 0=T Bead:=T pbc="F F F"
C      -43.16990000     -36.56770000     -70.27120000
C      -42.90100000     -35.24410000     -69.82530000
C      -42.53530000     -34.25360000     -70.77580000
C      -42.49200000     -34.59710000     -72.14090000
C      -42.78980000     -35.91070000     -72.55940000
C      -43.17010000     -36.86800000     -71.62820000
H      -43.56010000     -37.18320000     -69.55200000
H      -42.23830000     -33.25990000     -70.52320000
H      -42.78400000     -36.08860000     -73.63700000
H      -43.28110000     -37.87010000     -71.98870000
C      -42.13620000     -33.51600000     -73.14140000
H      -41.15420000     -33.76150000     -73.51300000
H      -42.11600000     -32.48400000     -72.62320000
C      -42.97800000     -34.82370000     -68.37020000
H      -43.93360000     -35.29810000     -67.89710000
H      -42.09530000     -35.27050000     -67.86790000
S      -43.26170000     -33.48990000     -74.63770000
S      -43.01740000     -32.99340000     -68.05650000
C      -44.73070000     -32.85300000     -73.78200000
H      -44.41590000     -32.05870000     -73.16430000
H      -45.37120000     -32.42420000     -74.57290000
C      -44.73140000     -32.56430000     -68.42180000
H      -44.76240000     -31.51410000     -68.17240000
H      -45.36100000     -32.99720000     -67.58300000
C      -45.31910000     -33.02030000     -69.80970000
H      -44.75150000     -32.78460000     -70.63390000
H      -45.27770000     -34.09960000     -69.71700000
C      -45.70150000     -33.84860000     -73.16230000
H      -45.23050000     -34.35260000     -72.37820000
H      -45.96690000     -34.63500000     -73.93020000
C      -46.95000000     -33.13360000     -72.76760000
C      -47.89900000     -32.83060000     -73.66580000
C      -47.33470000     -32.68340000     -71.39960000
H      -47.94640000     -33.08530000     -74.73540000
C      -48.54260000     -32.00160000     -71.46410000
C      -46.73860000     -32.58620000     -70.08950000
C      -47.65850000     -32.03060000     -69.15430000
S      -49.24540000     -31.95540000     -73.00620000
S      -49.16550000     -31.59440000     -69.94030000
H      -47.51550000     -31.99930000     -68.09210000
