40
Properties=species:S:1:pos:R:3 #=T CELL(abcABC):=T 1.889726e+02=T 90.00000=T Traj:=T positionsangstrom=T Step:=T 0=T Bead:=T pbc="F F F"
C      -45.05790000     -29.54330000     -71.24610000
C      -45.31020000     -30.11130000     -72.51960000
C      -46.47780000     -30.89910000     -72.67880000
C      -47.30580000     -31.16100000     -71.49990000
C      -47.08300000     -30.56450000     -70.28210000
C      -45.96630000     -29.69360000     -70.17290000
H      -44.20340000     -28.96340000     -70.95240000
H      -46.70600000     -31.49920000     -73.56090000
H      -47.79320000     -30.82590000     -69.46670000
H      -45.72320000     -29.15770000     -69.29360000
C      -48.54360000     -31.96860000     -71.77150000
H      -48.31070000     -32.54790000     -72.68280000
H      -49.38710000     -31.27550000     -72.02440000
C      -44.24150000     -29.95340000     -73.57340000
H      -44.49130000     -29.35580000     -74.43560000
H      -43.33780000     -29.49030000     -73.18510000
S      -49.33710000     -33.03210000     -70.51600000
S      -43.64390000     -31.56310000     -74.16940000
C      -48.04570000     -34.30690000     -70.19560000
H      -47.40820000     -33.91930000     -69.35170000
H      -48.62840000     -35.14320000     -69.71510000
C      -42.95280000     -32.23660000     -72.61760000
H      -42.23770000     -31.51300000     -72.18910000
H      -42.39210000     -33.17560000     -72.89130000
C      -43.97400000     -32.62880000     -71.47800000
H      -43.96560000     -31.73130000     -70.74980000
H      -44.96010000     -32.72420000     -71.90230000
C      -47.06910000     -34.54550000     -71.35670000
H      -46.56610000     -33.59040000     -71.65780000
H      -47.65400000     -34.96120000     -72.20120000
C      -45.93700000     -35.51380000     -70.98120000
C      -46.13060000     -36.86220000     -70.76540000
C      -44.50000000     -35.18880000     -70.77230000
H      -47.16740000     -37.25010000     -70.86370000
C      -43.83120000     -36.27640000     -70.31980000
C      -43.63120000     -33.98300000     -70.86270000
C      -42.36730000     -34.25930000     -70.40510000
S      -44.79360000     -37.78530000     -70.20460000
S      -42.14900000     -35.96820000     -70.13700000
H      -41.59900000     -33.49000000     -70.23630000
