40
Properties=species:S:1:pos:R:3 #=T CELL(abcABC):=T 1.889726e+02=T 90.00000=T Traj:=T positionsangstrom=T Step:=T 0=T Bead:=T pbc="F F F"
C      -45.23340000     -28.96200000     -71.46850000
C      -45.49380000     -29.90530000     -72.49730000
C      -46.57470000     -30.75400000     -72.40790000
C      -47.44510000     -30.65040000     -71.32900000
C      -47.04200000     -29.83210000     -70.23190000
C      -45.95250000     -29.00050000     -70.32250000
H      -44.38540000     -28.19450000     -71.68990000
H      -46.80330000     -31.35620000     -73.28980000
H      -47.60930000     -29.83670000     -69.34200000
H      -45.82290000     -28.25410000     -69.44400000
C      -48.78700000     -31.31780000     -71.38500000
H      -49.05700000     -31.60350000     -72.40740000
H      -49.50770000     -30.66290000     -70.98100000
C      -44.65020000     -29.92490000     -73.72380000
H      -45.23020000     -29.60970000     -74.60750000
H      -43.84300000     -29.18530000     -73.72110000
S      -48.98520000     -32.84250000     -70.35570000
S      -43.91350000     -31.57040000     -74.29590000
C      -47.38060000     -33.80310000     -70.03580000
H      -46.57060000     -33.07210000     -69.94260000
H      -47.47920000     -34.30360000     -69.08490000
C      -43.08360000     -32.42290000     -72.87880000
H      -42.48120000     -31.75120000     -72.29610000
H      -42.32980000     -33.06090000     -73.44230000
C      -44.13440000     -33.20560000     -72.03210000
H      -44.28550000     -32.57250000     -71.13750000
H      -45.06050000     -33.22420000     -72.58900000
C      -47.00550000     -34.79580000     -71.14940000
H      -46.80790000     -34.15740000     -72.08930000
H      -47.89830000     -35.37820000     -71.36910000
C      -45.91160000     -35.76880000     -70.69820000
C      -46.23040000     -36.93910000     -70.05840000
C      -44.48280000     -35.58040000     -70.82220000
H      -47.17600000     -37.28360000     -69.71510000
C      -43.73000000     -36.60440000     -70.21130000
C      -43.66810000     -34.61150000     -71.49500000
C      -42.30070000     -34.90170000     -71.39860000
S      -44.75840000     -37.84410000     -69.59690000
S      -41.97040000     -36.44220000     -70.48380000
H      -41.48560000     -34.49070000     -71.87150000
