40
Properties=species:S:1:pos:R:3 #=T CELL(abcABC):=T 1.889726e+02=T 90.00000=T Traj:=T positionsangstrom=T Step:=T 0=T Bead:=T pbc="F F F"
C      -47.74560000     -30.03640000     -70.83870000
C      -47.38180000     -30.90830000     -69.79170000
C      -46.06590000     -31.01800000     -69.41980000
C      -45.09110000     -30.18140000     -70.06160000
C      -45.40420000     -29.42770000     -71.14040000
C      -46.73420000     -29.26100000     -71.49850000
H      -48.72830000     -29.97260000     -71.28630000
H      -45.87630000     -31.63120000     -68.53690000
H      -44.63460000     -29.02160000     -71.75790000
H      -47.00590000     -28.60130000     -72.28620000
C      -43.61860000     -30.35220000     -69.60030000
H      -43.47800000     -31.15860000     -68.81460000
H      -43.45730000     -29.41140000     -69.08320000
C      -48.53330000     -31.65300000     -69.08900000
H      -48.41630000     -31.59180000     -67.98020000
H      -49.53150000     -31.25110000     -69.26840000
S      -42.44460000     -30.68390000     -70.97520000
S      -48.62460000     -33.46770000     -69.41940000
C      -42.50010000     -32.57010000     -71.00370000
H      -41.73820000     -32.88080000     -71.70030000
H      -42.27070000     -33.07020000     -70.06780000
C      -47.00610000     -34.24080000     -70.17210000
H      -47.03140000     -35.27320000     -69.99900000
H      -46.18320000     -33.78000000     -69.50970000
C      -46.91810000     -33.96740000     -71.71220000
H      -47.90050000     -33.81510000     -72.07310000
H      -46.36040000     -33.00110000     -71.75000000
C      -43.85170000     -33.18910000     -71.34400000
H      -44.34660000     -32.53150000     -72.05820000
H      -44.43150000     -33.21610000     -70.42140000
C      -43.72800000     -34.55040000     -71.88540000
C      -42.52540000     -35.20180000     -71.93380000
C      -44.81800000     -35.25350000     -72.44040000
H      -41.53950000     -34.92290000     -71.75430000
C      -44.40460000     -36.44980000     -73.00900000
C      -46.23770000     -35.11990000     -72.41390000
C      -46.91240000     -36.13870000     -73.04210000
S      -42.71420000     -36.72830000     -72.85740000
S      -45.79660000     -37.50700000     -73.43860000
H      -47.99890000     -36.37580000     -73.04700000
