40
Properties=species:S:1:pos:R:3 #=T CELL(abcABC):=T 1.889726e+02=T 90.00000=T Traj:=T positionsangstrom=T Step:=T 0=T Bead:=T pbc="F F F"
C      -45.87000000     -29.09890000     -70.59240000
C      -45.35220000     -29.92510000     -71.63240000
C      -46.30300000     -30.79260000     -72.18450000
C      -47.62740000     -30.98210000     -71.73830000
C      -48.05750000     -30.17200000     -70.64030000
C      -47.13570000     -29.25730000     -70.06830000
H      -45.15970000     -28.47770000     -70.02850000
H      -45.95600000     -31.18800000     -73.12860000
H      -49.09520000     -30.22160000     -70.39380000
H      -47.57090000     -28.75770000     -69.21880000
C      -48.57540000     -31.79490000     -72.60130000
H      -48.13300000     -32.06500000     -73.56420000
H      -49.53280000     -31.27320000     -72.75800000
C      -43.98470000     -29.66270000     -72.32530000
H      -44.02240000     -28.70370000     -72.87090000
H      -43.09260000     -29.48310000     -71.69880000
S      -49.07810000     -33.41840000     -71.82900000
S      -43.56250000     -30.87280000     -73.71550000
C      -47.58350000     -34.07400000     -71.00680000
H      -46.89630000     -33.29710000     -70.85620000
H      -47.76620000     -34.36650000     -69.91370000
C      -42.93970000     -32.35590000     -72.75260000
H      -42.50210000     -31.89960000     -71.89220000
H      -42.09530000     -32.71090000     -73.36940000
C      -44.03600000     -33.39640000     -72.41030000
H      -44.96370000     -32.85850000     -72.08290000
H      -44.29000000     -34.00410000     -73.35190000
C      -46.94380000     -35.32840000     -71.65580000
H      -46.62180000     -35.01070000     -72.68100000
H      -47.74260000     -36.09590000     -71.79600000
C      -45.78810000     -35.99760000     -70.97800000
C      -45.93980000     -37.18930000     -70.35250000
C      -44.36390000     -35.55440000     -70.81790000
H      -46.88180000     -37.71140000     -70.28180000
C      -43.65340000     -36.40720000     -70.02730000
C      -43.60260000     -34.35520000     -71.27780000
C      -42.33210000     -34.39490000     -70.68820000
S      -44.56280000     -37.84770000     -69.58670000
S      -42.05070000     -35.78580000     -69.70160000
H      -41.68180000     -33.55060000     -70.64900000
