40
Properties=species:S:1:pos:R:3 #=T CELL(abcABC):=T 1.889726e+02=T 90.00000=T Traj:=T positionsangstrom=T Step:=T 0=T Bead:=T pbc="F F F"
C      -44.69870000     -35.02910000     -75.50390000
C      -44.42360000     -35.39780000     -74.11800000
C      -43.60450000     -34.58550000     -73.36550000
C      -43.12310000     -33.41990000     -73.88940000
C      -43.41340000     -33.00430000     -75.15440000
C      -44.24610000     -33.80620000     -76.01850000
H      -45.33700000     -35.62030000     -76.16010000
H      -43.41470000     -34.76480000     -72.27040000
H      -42.94640000     -32.12590000     -75.59640000
H      -44.31540000     -33.55680000     -77.02830000
C      -42.26430000     -32.54850000     -72.93570000
H      -41.50420000     -32.18030000     -73.59050000
H      -41.75840000     -33.11610000     -72.09860000
C      -44.95200000     -36.67880000     -73.58130000
H      -45.17710000     -37.50870000     -74.27980000
H      -44.50610000     -37.22770000     -72.71610000
S      -42.99510000     -30.99120000     -72.28380000
S      -46.78490000     -36.37930000     -72.90430000
C      -44.81780000     -31.13730000     -72.48320000
H      -45.19380000     -30.11200000     -72.25130000
H      -45.02290000     -31.23780000     -73.58180000
C      -46.58190000     -35.95940000     -71.18260000
H      -45.47290000     -35.75000000     -70.91290000
H      -46.78370000     -36.84590000     -70.62200000
C      -47.46420000     -34.78230000     -70.67500000
H      -47.44250000     -34.05140000     -71.49110000
H      -48.53190000     -35.06960000     -70.47510000
C      -45.56010000     -32.18320000     -71.78040000
H      -45.19650000     -33.13360000     -71.97820000
H      -46.58350000     -32.05380000     -72.24690000
C      -45.65120000     -31.99430000     -70.28650000
C      -45.02260000     -30.94270000     -69.65860000
C      -46.34460000     -32.85380000     -69.30510000
H      -44.52630000     -30.17550000     -70.19080000
C      -46.18590000     -32.37760000     -67.98370000
C      -47.07890000     -34.04100000     -69.36260000
C      -47.62800000     -34.41710000     -68.16600000
S      -45.29400000     -30.92140000     -67.91180000
S      -47.19470000     -33.34590000     -66.88020000
H      -48.13630000     -35.32410000     -68.00700000
