40
Properties=species:S:1:pos:R:3 #=T CELL(abcABC):=T 1.889726e+02=T 90.00000=T Traj:=T positionsangstrom=T Step:=T 0=T Bead:=T pbc="F F F"
C      -46.01960000     -29.79430000     -70.16590000
C      -45.53570000     -29.98660000     -71.49810000
C      -46.30700000     -30.68030000     -72.45440000
C      -47.61710000     -31.08710000     -72.10660000
C      -48.08360000     -30.87290000     -70.81220000
C      -47.35910000     -30.13560000     -69.90810000
H      -45.35630000     -29.32400000     -69.42970000
H      -45.84690000     -30.91000000     -73.44230000
H      -49.05430000     -31.24870000     -70.51350000
H      -47.69330000     -29.89020000     -68.91730000
C      -48.43250000     -31.99400000     -73.00930000
H      -47.82480000     -32.39880000     -73.76570000
H      -49.33560000     -31.46330000     -73.50100000
C      -44.08270000     -29.56900000     -71.86300000
H      -43.96620000     -28.52360000     -72.23390000
H      -43.44460000     -29.68650000     -70.94510000
S      -49.22540000     -33.46820000     -72.10830000
S      -43.28480000     -30.57060000     -73.23480000
C      -47.57740000     -34.00780000     -71.24970000
H      -46.93570000     -33.15110000     -70.95700000
H      -47.96530000     -34.57300000     -70.31780000
C      -42.73710000     -32.12490000     -72.34880000
H      -42.34490000     -31.86950000     -71.34870000
H      -41.78160000     -32.31570000     -72.96550000
C      -43.80580000     -33.19880000     -72.31760000
H      -44.73310000     -32.82260000     -71.89200000
H      -44.10150000     -33.28640000     -73.39280000
C      -46.75420000     -34.99630000     -72.01660000
H      -46.14290000     -34.61920000     -72.83420000
H      -47.30110000     -35.86230000     -72.30070000
C      -45.77540000     -35.64170000     -71.03030000
C      -46.17770000     -36.57450000     -70.12560000
C      -44.34680000     -35.50690000     -71.06070000
H      -47.20130000     -36.92820000     -69.92050000
C      -43.74690000     -36.44660000     -70.21150000
C      -43.41420000     -34.44020000     -71.46670000
C      -42.13750000     -34.71170000     -70.98200000
S      -44.89270000     -37.26280000     -69.17080000
S      -41.97350000     -36.19010000     -70.00550000
H      -41.21240000     -34.30260000     -71.38500000
