40
Properties=species:S:1:pos:R:3 #=T CELL(abcABC):=T 1.889726e+02=T 90.00000=T Traj:=T positionsangstrom=T Step:=T 0=T Bead:=T pbc="F F F"
C      -45.98700000     -29.57890000     -70.36720000
C      -45.50930000     -29.99090000     -71.59390000
C      -46.33590000     -30.71750000     -72.47030000
C      -47.66300000     -31.00250000     -72.09020000
C      -48.07740000     -30.61610000     -70.80390000
C      -47.32140000     -29.83620000     -69.95910000
H      -45.38200000     -29.10860000     -69.60340000
H      -45.94430000     -30.92350000     -73.45270000
H      -49.12410000     -30.88760000     -70.58910000
H      -47.75750000     -29.53650000     -68.99280000
C      -48.42760000     -32.03660000     -72.92580000
H      -47.81510000     -32.34920000     -73.81740000
H      -49.25970000     -31.60660000     -73.42230000
C      -44.08480000     -29.54480000     -71.92440000
H      -44.04700000     -28.60230000     -72.50020000
H      -43.46480000     -29.42710000     -71.03490000
S      -49.07330000     -33.40610000     -71.86690000
S      -43.26980000     -30.62010000     -73.23670000
C      -47.62540000     -34.20400000     -71.14950000
H      -46.88680000     -33.39960000     -70.95430000
H      -47.82540000     -34.65220000     -70.22840000
C      -42.86130000     -32.25600000     -72.60920000
H      -42.24420000     -32.03220000     -71.68670000
H      -42.30320000     -32.62490000     -73.42790000
C      -44.00050000     -33.24070000     -72.35770000
H      -44.69860000     -32.73160000     -71.65170000
H      -44.52010000     -33.59420000     -73.23050000
C      -46.80490000     -35.29380000     -72.01300000
H      -46.49480000     -34.77050000     -72.91390000
H      -47.47640000     -36.05520000     -72.46460000
C      -45.72960000     -35.90330000     -71.17240000
C      -46.17330000     -36.80610000     -70.22500000
C      -44.34530000     -35.52150000     -71.06020000
H      -47.14620000     -37.22120000     -70.07690000
C      -43.71510000     -36.39670000     -70.09380000
C      -43.49290000     -34.44660000     -71.54180000
C      -42.17360000     -34.58740000     -71.03150000
S      -44.82670000     -37.40190000     -69.20780000
S      -42.00590000     -35.96960000     -69.87970000
H      -41.25580000     -34.13510000     -71.38310000
