40
Properties=species:S:1:pos:R:3 #=T CELL(abcABC):=T 1.889726e+02=T 90.00000=T Traj:=T positionsangstrom=T Step:=T 0=T Bead:=T pbc="F F F"
C      -46.10270000     -33.50610000     -73.45490000
C      -46.06050000     -34.86590000     -73.04020000
C      -46.90980000     -35.28220000     -71.99840000
C      -47.73210000     -34.37020000     -71.28350000
C      -47.86570000     -33.04190000     -71.79680000
C      -47.00890000     -32.65590000     -72.79940000
H      -45.52160000     -33.19290000     -74.28570000
H      -46.88610000     -36.33130000     -71.66610000
H      -48.52320000     -32.30970000     -71.37170000
H      -47.00020000     -31.62720000     -73.01980000
C      -48.54050000     -34.84390000     -70.11780000
H      -48.55310000     -35.94000000     -70.04360000
H      -49.58950000     -34.56540000     -70.24610000
C      -45.21980000     -35.82090000     -73.86720000
H      -45.08450000     -36.78470000     -73.21400000
H      -45.81710000     -35.97630000     -74.77180000
S      -48.03750000     -34.19530000     -68.52900000
S      -43.57890000     -35.01810000     -74.39530000
C      -46.33750000     -34.72010000     -68.11510000
H      -46.05630000     -34.17600000     -67.15710000
H      -46.37490000     -35.78670000     -67.93970000
C      -42.45740000     -35.26330000     -72.96640000
H      -41.60440000     -34.73750000     -73.29960000
H      -42.12360000     -36.32900000     -72.83840000
C      -42.91370000     -34.73180000     -71.55580000
H      -43.77660000     -35.30650000     -71.16050000
H      -42.06670000     -34.98010000     -70.96500000
C      -45.25110000     -34.47000000     -69.13350000
H      -45.32470000     -35.28900000     -69.88790000
H      -44.28790000     -34.72710000     -68.74150000
C      -45.19840000     -33.03600000     -69.60960000
C      -45.88340000     -31.99660000     -69.05680000
C      -44.34420000     -32.58160000     -70.76040000
H      -46.47460000     -32.06280000     -68.13810000
C      -44.41360000     -31.20800000     -71.01330000
C      -43.28870000     -33.18700000     -71.57780000
C      -42.56980000     -32.29580000     -72.31420000
S      -45.41960000     -30.44390000     -69.80350000
S      -43.18990000     -30.56040000     -72.11710000
H      -41.75310000     -32.52190000     -72.93800000
