40
Properties=species:S:1:pos:R:3 #=T CELL(abcABC):=T 1.889726e+02=T 90.00000=T Traj:=T positionsangstrom=T Step:=T 0=T Bead:=T pbc="F F F"
C      -46.00800000     -29.84390000     -70.21950000
C      -45.51630000     -30.18590000     -71.53490000
C      -46.39100000     -30.89950000     -72.34400000
C      -47.73370000     -31.20750000     -71.95760000
C      -48.22920000     -30.73550000     -70.72800000
C      -47.29240000     -30.18080000     -69.81670000
H      -45.32460000     -29.26250000     -69.60390000
H      -46.00770000     -31.18920000     -73.36800000
H      -49.29240000     -30.85370000     -70.42860000
H      -47.53830000     -29.87450000     -68.81200000
C      -48.66280000     -31.70770000     -72.99650000
H      -48.31020000     -31.69100000     -74.01810000
H      -49.65010000     -31.27270000     -72.96520000
C      -44.20810000     -29.67200000     -72.00400000
H      -44.38660000     -28.73310000     -72.54990000
H      -43.57290000     -29.45850000     -71.14970000
S      -49.07870000     -33.52300000     -72.50660000
S      -43.22480000     -30.68230000     -73.16610000
C      -47.95310000     -34.08770000     -71.18630000
H      -47.72480000     -33.35010000     -70.50970000
H      -48.55810000     -34.84890000     -70.62720000
C      -42.64030000     -32.13200000     -72.14210000
H      -42.50790000     -31.87020000     -71.06330000
H      -41.69640000     -32.43110000     -72.46780000
C      -43.63660000     -33.25040000     -72.35370000
H      -44.60470000     -32.82160000     -71.96330000
H      -43.80250000     -33.55700000     -73.42200000
C      -46.66930000     -34.64440000     -71.74080000
H      -46.21600000     -33.75710000     -72.27270000
H      -47.06330000     -35.45930000     -72.42320000
C      -45.75100000     -35.32540000     -70.83300000
C      -46.13320000     -36.44850000     -70.19870000
C      -44.33100000     -35.19690000     -70.66890000
H      -47.18530000     -36.84740000     -70.16100000
C      -43.75130000     -36.18330000     -69.88570000
C      -43.34820000     -34.50440000     -71.51400000
C      -42.05930000     -34.91550000     -71.24440000
S      -44.86070000     -37.34750000     -69.33950000
S      -41.98680000     -36.23130000     -70.00370000
H      -41.15110000     -34.31350000     -71.45220000
