40
Properties=species:S:1:pos:R:3 #=T CELL(abcABC):=T 1.889726e+02=T 90.00000=T Traj:=T positionsangstrom=T Step:=T 0=T Bead:=T pbc="F F F"
C      -42.97840000     -36.43770000     -70.49030000
C      -42.75740000     -35.11640000     -70.10200000
C      -42.43030000     -34.14930000     -71.02220000
C      -42.38810000     -34.49520000     -72.37660000
C      -42.63880000     -35.82020000     -72.77060000
C      -42.91290000     -36.80580000     -71.82780000
H      -43.23850000     -37.16210000     -69.66460000
H      -42.27570000     -33.12900000     -70.64870000
H      -42.71030000     -35.99750000     -73.85750000
H      -43.20770000     -37.83440000     -72.02670000
C      -42.11190000     -33.47340000     -73.45630000
H      -41.10340000     -33.55260000     -73.93260000
H      -42.10390000     -32.48980000     -73.00090000
C      -42.75490000     -34.80600000     -68.61500000
H      -43.36200000     -35.51330000     -68.08360000
H      -41.70180000     -34.99440000     -68.26530000
S      -43.41030000     -33.40320000     -74.87510000
S      -43.01760000     -33.13430000     -68.01910000
C      -44.97610000     -32.63670000     -74.21440000
H      -44.86700000     -31.55700000     -73.82260000
H      -45.56720000     -32.47970000     -75.10320000
C      -44.74590000     -32.83720000     -68.30490000
H      -44.85030000     -31.78650000     -67.86350000
H      -45.23950000     -33.58150000     -67.66290000
C      -45.28870000     -33.03490000     -69.73810000
H      -44.46400000     -32.56960000     -70.37790000
H      -45.23360000     -34.07550000     -69.91630000
C      -45.74390000     -33.58780000     -73.19290000
H      -44.95940000     -33.67950000     -72.36830000
H      -45.97250000     -34.52350000     -73.60340000
C      -47.04730000     -33.02930000     -72.65930000
C      -48.13140000     -33.01900000     -73.46340000
C      -47.33370000     -32.54990000     -71.29990000
H      -48.18650000     -33.36200000     -74.49810000
C      -48.69990000     -32.24390000     -71.14300000
C      -46.65700000     -32.52420000     -69.99440000
C      -47.41950000     -31.91240000     -69.00750000
S      -49.55850000     -32.39020000     -72.61750000
S      -49.03850000     -31.46330000     -69.59480000
H      -47.15500000     -31.66530000     -67.98980000
