40
Properties=species:S:1:pos:R:3 #=T CELL(abcABC):=T 1.889726e+02=T 90.00000=T Traj:=T positionsangstrom=T Step:=T 0=T Bead:=T pbc="F F F"
C      -46.21780000     -33.23430000     -73.32360000
C      -46.22070000     -34.62880000     -73.09640000
C      -46.94380000     -35.18860000     -72.01100000
C      -47.78880000     -34.33520000     -71.25140000
C      -47.85420000     -32.96050000     -71.54820000
C      -47.06480000     -32.41370000     -72.56960000
H      -45.56880000     -32.83730000     -74.08480000
H      -46.76150000     -36.27830000     -71.69640000
H      -48.37230000     -32.22460000     -70.97870000
H      -47.16160000     -31.39600000     -72.82620000
C      -48.67920000     -34.84970000     -70.13390000
H      -48.55650000     -35.91720000     -70.05910000
H      -49.78870000     -34.66870000     -70.18700000
C      -45.31410000     -35.66520000     -73.72310000
H      -45.07470000     -36.40610000     -72.98090000
H      -45.76480000     -36.23650000     -74.51200000
S      -48.09970000     -34.05500000     -68.51560000
S      -43.76250000     -35.08320000     -74.47500000
C      -46.35050000     -34.95050000     -68.22230000
H      -46.20330000     -34.88750000     -67.12440000
H      -46.46230000     -36.02310000     -68.38220000
C      -42.54410000     -35.29740000     -73.06080000
H      -41.61560000     -34.72590000     -73.25460000
H      -42.40190000     -36.40320000     -72.99960000
C      -43.04340000     -34.86910000     -71.73130000
H      -44.02560000     -35.34380000     -71.53990000
H      -42.34920000     -35.22660000     -70.93900000
C      -45.16290000     -34.51950000     -69.07710000
H      -45.13190000     -35.06900000     -70.01030000
H      -44.26060000     -34.73260000     -68.45960000
C      -44.92500000     -33.03230000     -69.49010000
C      -45.61170000     -31.95580000     -69.02040000
C      -44.08830000     -32.64060000     -70.58750000
H      -46.30080000     -32.00330000     -68.22590000
C      -44.10680000     -31.26240000     -70.91610000
C      -43.27770000     -33.34170000     -71.58500000
C      -42.73720000     -32.40420000     -72.47460000
S      -45.28020000     -30.47330000     -69.84720000
S      -43.10760000     -30.71690000     -72.24820000
H      -42.23690000     -32.64230000     -73.35970000
