40
Properties=species:S:1:pos:R:3 #=T CELL(abcABC):=T 1.889726e+02=T 90.00000=T Traj:=T positionsangstrom=T Step:=T 0=T Bead:=T pbc="F F F"
C      -46.56140000     -33.17090000     -73.71950000
C      -46.68640000     -34.54600000     -73.54200000
C      -47.20530000     -35.09820000     -72.35810000
C      -47.50560000     -34.21490000     -71.31320000
C      -47.39600000     -32.81270000     -71.44680000
C      -46.91310000     -32.27800000     -72.71120000
H      -46.22370000     -32.84670000     -74.69230000
H      -47.29160000     -36.14470000     -72.21650000
H      -47.55830000     -32.24080000     -70.56490000
H      -46.78020000     -31.19050000     -72.89030000
C      -48.13610000     -34.75350000     -70.09780000
H      -47.70270000     -35.74060000     -69.88360000
H      -49.22970000     -34.93770000     -70.21580000
C      -46.02490000     -35.38580000     -74.60410000
H      -46.15210000     -36.40750000     -74.39190000
H      -46.45420000     -35.19230000     -75.63180000
S      -47.91540000     -33.85050000     -68.48610000
S      -44.20930000     -35.01120000     -74.73420000
C      -46.23330000     -34.66740000     -67.89900000
H      -45.97380000     -34.25200000     -66.97900000
H      -46.42210000     -35.73840000     -67.75810000
C      -43.33730000     -35.56950000     -73.14900000
H      -42.22590000     -35.40790000     -73.32760000
H      -43.27310000     -36.62680000     -73.02970000
C      -43.75570000     -35.00550000     -71.88850000
H      -44.72370000     -35.28590000     -71.60270000
H      -43.14930000     -35.50380000     -71.06280000
C      -45.18550000     -34.48820000     -68.99210000
H      -45.45690000     -34.96330000     -69.92930000
H      -44.32790000     -35.04460000     -68.65270000
C      -44.73110000     -33.09600000     -69.20820000
C      -44.86620000     -31.93630000     -68.41120000
C      -44.17100000     -32.77460000     -70.54150000
H      -45.26780000     -32.06070000     -67.42410000
C      -43.87200000     -31.37780000     -70.63580000
C      -43.69050000     -33.54810000     -71.65190000
C      -43.17650000     -32.73440000     -72.63620000
S      -44.36230000     -30.52980000     -69.22700000
S      -43.10470000     -30.98610000     -72.20120000
H      -42.69250000     -32.96710000     -73.56420000
