40
Properties=species:S:1:pos:R:3 #=T CELL(abcABC):=T 1.889726e+02=T 90.00000=T Traj:=T positionsangstrom=T Step:=T 0=T Bead:=T pbc="F F F"
C      -46.48470000     -33.15440000     -73.60640000
C      -46.37010000     -34.47500000     -73.18150000
C      -47.02480000     -34.99100000     -72.03880000
C      -47.68500000     -34.07910000     -71.18550000
C      -47.71940000     -32.70850000     -71.54280000
C      -47.11590000     -32.27870000     -72.76380000
H      -46.12690000     -32.87580000     -74.59770000
H      -46.86630000     -35.97110000     -71.69380000
H      -48.11770000     -31.93000000     -70.79680000
H      -47.18520000     -31.19570000     -73.00150000
C      -48.41990000     -34.69590000     -70.00380000
H      -48.25340000     -35.78700000     -69.88210000
H      -49.50380000     -34.60690000     -70.16770000
C      -45.62490000     -35.41160000     -74.11470000
H      -45.53710000     -36.39930000     -73.64860000
H      -46.21290000     -35.45760000     -75.02800000
S      -48.00090000     -33.97320000     -68.38960000
S      -43.82430000     -34.93310000     -74.48600000
C      -46.33210000     -34.70670000     -68.05970000
H      -45.99390000     -34.06270000     -67.20050000
H      -46.39830000     -35.75570000     -67.71320000
C      -42.93400000     -35.64050000     -73.09790000
H      -41.85250000     -35.46730000     -73.37670000
H      -43.04780000     -36.78770000     -72.99090000
C      -43.31370000     -35.01470000     -71.75060000
H      -44.20510000     -35.36800000     -71.23250000
H      -42.57020000     -35.19830000     -70.93850000
C      -45.16880000     -34.62650000     -69.08770000
H      -45.35390000     -35.19050000     -70.03760000
H      -44.19190000     -35.04420000     -68.74310000
C      -44.93010000     -33.19180000     -69.50670000
C      -45.14490000     -32.07130000     -68.73620000
C      -44.25300000     -32.80270000     -70.73330000
H      -45.70800000     -31.98260000     -67.83420000
C      -44.18260000     -31.42560000     -70.91750000
C      -43.46580000     -33.51170000     -71.74910000
C      -42.80180000     -32.61170000     -72.55590000
S      -44.79930000     -30.57530000     -69.56960000
S      -43.19740000     -30.92860000     -72.32010000
H      -42.12690000     -33.15410000     -73.29610000
