40
Properties=species:S:1:pos:R:3 #=T CELL(abcABC):=T 1.889726e+02=T 90.00000=T Traj:=T positionsangstrom=T Step:=T 0=T Bead:=T pbc="F F F"
C      -45.61870000     -31.83190000     -73.32970000
C      -46.00490000     -33.18170000     -73.58970000
C      -46.98320000     -33.80780000     -72.73160000
C      -47.56530000     -33.13440000     -71.66820000
C      -47.17110000     -31.82600000     -71.45210000
C      -46.19550000     -31.18910000     -72.26710000
H      -44.86160000     -31.40690000     -73.95950000
H      -47.12580000     -34.86360000     -72.96660000
H      -47.52640000     -31.22760000     -70.61900000
H      -45.87950000     -30.16890000     -72.06750000
C      -48.71210000     -33.86770000     -70.89700000
H      -48.83500000     -34.84010000     -71.36250000
H      -49.69050000     -33.32080000     -71.01910000
C      -45.52010000     -33.89720000     -74.79780000
H      -46.12850000     -34.75310000     -75.13250000
H      -45.70880000     -33.13140000     -75.60570000
S      -48.59240000     -34.02290000     -69.02280000
S      -43.75180000     -34.22550000     -74.75770000
C      -47.27120000     -35.31180000     -68.53600000
H      -47.07190000     -35.14400000     -67.51220000
H      -47.70940000     -36.29600000     -68.58940000
C      -43.53060000     -35.62600000     -73.60810000
H      -42.44650000     -35.96320000     -73.74210000
H      -44.07700000     -36.50710000     -73.98710000
C      -43.97610000     -35.47810000     -72.15510000
H      -45.04010000     -35.58300000     -72.18780000
H      -43.62140000     -36.31260000     -71.60020000
C      -45.96220000     -35.27790000     -69.36590000
H      -46.12350000     -35.56000000     -70.36510000
H      -45.25410000     -35.98470000     -68.87690000
C      -45.32690000     -33.89650000     -69.42250000
C      -45.60240000     -32.86310000     -68.53840000
C      -44.32370000     -33.57400000     -70.41520000
H      -46.20000000     -32.81860000     -67.67180000
C      -43.79870000     -32.30590000     -70.15840000
C      -43.64930000     -34.18330000     -71.52400000
C      -42.59220000     -33.43920000     -72.01910000
S      -44.54170000     -31.41570000     -68.85480000
S      -42.43760000     -31.90380000     -71.19220000
H      -41.88900000     -33.76370000     -72.77690000
