40
Properties=species:S:1:pos:R:3 #=T CELL(abcABC):=T 1.889726e+02=T 90.00000=T Traj:=T positionsangstrom=T Step:=T 0=T Bead:=T pbc="F F F"
C      -46.39790000     -32.51460000     -73.37820000
C      -46.49910000     -33.90270000     -73.42880000
C      -47.39570000     -34.43360000     -72.45170000
C      -48.07810000     -33.65530000     -71.49090000
C      -47.85140000     -32.27940000     -71.42590000
C      -46.98540000     -31.72930000     -72.38470000
H      -45.91820000     -31.97800000     -74.16310000
H      -47.55310000     -35.54950000     -72.39680000
H      -48.37290000     -31.60750000     -70.77020000
H      -46.81550000     -30.68490000     -72.38230000
C      -49.02750000     -34.36510000     -70.50080000
H      -49.07870000     -35.43520000     -70.62230000
H      -50.06650000     -33.98660000     -70.54100000
C      -45.83520000     -34.82570000     -74.40790000
H      -45.83440000     -35.86850000     -73.94840000
H      -46.40730000     -34.77540000     -75.32730000
S      -48.31060000     -34.03550000     -68.79520000
S      -44.08160000     -34.33440000     -74.72080000
C      -46.95550000     -35.24450000     -68.81130000
H      -46.48840000     -35.41850000     -67.86560000
H      -47.40560000     -36.22020000     -69.03010000
C      -43.19960000     -35.38440000     -73.60790000
H      -42.11670000     -35.13760000     -73.74150000
H      -43.30670000     -36.45970000     -73.89310000
C      -43.42080000     -35.24460000     -72.08450000
H      -44.40940000     -35.64140000     -71.79010000
H      -42.67010000     -35.71180000     -71.49620000
C      -45.76060000     -34.92340000     -69.75070000
H      -46.00150000     -35.11480000     -70.87570000
H      -44.92570000     -35.58910000     -69.52210000
C      -45.05850000     -33.49670000     -69.64980000
C      -45.24280000     -32.57070000     -68.69130000
C      -43.98060000     -33.14650000     -70.55960000
H      -46.02410000     -32.71200000     -67.95780000
C      -43.45310000     -31.90280000     -70.23680000
C      -43.35750000     -33.79510000     -71.72300000
C      -42.43600000     -32.88960000     -72.25610000
S      -44.30190000     -31.09900000     -68.87950000
S      -42.20300000     -31.39270000     -71.31270000
H      -41.88480000     -33.01290000     -73.17710000
