40
Properties=species:S:1:pos:R:3 #=T CELL(abcABC):=T 1.889726e+02=T 90.00000=T Traj:=T positionsangstrom=T Step:=T 0=T Bead:=T pbc="F F F"
C      -42.66430000     -36.57100000     -70.61970000
C      -42.61250000     -35.19900000     -70.22170000
C      -42.41920000     -34.20300000     -71.19680000
C      -42.47190000     -34.51510000     -72.55230000
C      -42.65640000     -35.84110000     -72.93700000
C      -42.79050000     -36.88470000     -71.99980000
H      -42.80320000     -37.41780000     -69.94310000
H      -42.25790000     -33.18420000     -70.79870000
H      -42.78050000     -36.04350000     -74.02080000
H      -42.77760000     -37.88960000     -72.25760000
C      -42.29420000     -33.39360000     -73.54350000
H      -41.42190000     -33.59730000     -74.17110000
H      -42.23660000     -32.47930000     -72.88990000
C      -42.46990000     -34.89150000     -68.74650000
H      -43.17700000     -35.54430000     -68.14140000
H      -41.45580000     -34.98640000     -68.41190000
S      -43.56970000     -33.24710000     -74.85290000
S      -42.89010000     -33.15420000     -68.17870000
C      -44.95380000     -32.51600000     -73.90980000
H      -44.56170000     -31.66670000     -73.32150000
H      -45.62100000     -32.12120000     -74.62530000
C      -44.80800000     -33.06840000     -68.34600000
H      -45.22380000     -32.22700000     -67.82170000
H      -45.18250000     -33.90070000     -67.81320000
C      -45.28830000     -32.96100000     -69.77030000
H      -44.75050000     -32.21050000     -70.35450000
H      -45.17250000     -33.88660000     -70.28640000
C      -45.63360000     -33.50970000     -72.86820000
H      -45.04680000     -33.60330000     -71.91340000
H      -45.71350000     -34.46720000     -73.38460000
C      -47.01850000     -33.00190000     -72.48890000
C      -48.14250000     -33.09590000     -73.27850000
C      -47.32960000     -32.49620000     -71.19250000
H      -48.26750000     -33.48780000     -74.26640000
C      -48.67690000     -32.15320000     -71.15040000
C      -46.69630000     -32.36120000     -69.89840000
C      -47.53590000     -31.70690000     -68.99390000
S      -49.60450000     -32.56640000     -72.49010000
S      -49.18030000     -31.44910000     -69.58320000
H      -47.35500000     -31.72960000     -67.88910000
