40
Properties=species:S:1:pos:R:3 #=T CELL(abcABC):=T 1.889726e+02=T 90.00000=T Traj:=T positionsangstrom=T Step:=T 0=T Bead:=T pbc="F F F"
C      -46.39580000     -32.63480000     -73.48360000
C      -46.54640000     -34.04860000     -73.44310000
C      -47.39350000     -34.50670000     -72.38600000
C      -48.10050000     -33.64230000     -71.53220000
C      -48.01340000     -32.28260000     -71.75710000
C      -47.09960000     -31.79380000     -72.70870000
H      -45.63420000     -32.22380000     -74.17550000
H      -47.47100000     -35.60750000     -72.40550000
H      -48.56760000     -31.61490000     -71.08460000
H      -47.12360000     -30.73620000     -72.87450000
C      -48.88810000     -34.32370000     -70.37810000
H      -49.09430000     -35.40330000     -70.69730000
H      -49.84680000     -33.84210000     -70.32440000
C      -45.91100000     -34.96510000     -74.48600000
H      -45.82520000     -36.02810000     -74.33490000
H      -46.43090000     -34.83020000     -75.43190000
S      -48.24000000     -34.12210000     -68.67420000
S      -44.15650000     -34.47090000     -74.90660000
C      -46.62300000     -35.10440000     -68.34430000
H      -46.24760000     -34.76190000     -67.38150000
H      -46.96480000     -36.16520000     -68.42550000
C      -43.16470000     -35.41830000     -73.61570000
H      -42.23220000     -34.98420000     -73.89240000
H      -43.26790000     -36.47270000     -73.90640000
C      -43.56560000     -35.13280000     -72.07530000
H      -44.59340000     -35.37070000     -71.89790000
H      -43.04880000     -35.87530000     -71.37790000
C      -45.65450000     -34.93340000     -69.47490000
H      -46.17800000     -35.10560000     -70.36410000
H      -44.98120000     -35.77830000     -69.36720000
C      -44.96160000     -33.52190000     -69.61180000
C      -45.19290000     -32.56860000     -68.69140000
C      -43.95330000     -33.08290000     -70.51780000
H      -45.87690000     -32.74630000     -67.87140000
C      -43.55480000     -31.78780000     -70.25330000
C      -43.27980000     -33.68280000     -71.63130000
C      -42.33430000     -32.82400000     -72.17430000
S      -44.29000000     -31.07810000     -68.88550000
S      -42.33450000     -31.21810000     -71.36870000
H      -41.55570000     -33.07280000     -72.93220000
