40
Properties=species:S:1:pos:R:3 #=T CELL(abcABC):=T 1.889726e+02=T 90.00000=T Traj:=T positionsangstrom=T Step:=T 0=T Bead:=T pbc="F F F"
C      -45.30760000     -31.78420000     -73.39310000
C      -45.79630000     -33.09620000     -73.66060000
C      -47.03210000     -33.49830000     -73.13130000
C      -47.71890000     -32.67820000     -72.16800000
C      -47.15810000     -31.48240000     -71.79000000
C      -46.03190000     -31.05460000     -72.45030000
H      -44.50540000     -31.26460000     -73.86840000
H      -47.51420000     -34.43980000     -73.45900000
H      -47.60110000     -30.73110000     -71.05240000
H      -45.68880000     -30.04170000     -72.25720000
C      -48.96980000     -33.23720000     -71.54330000
H      -49.20390000     -34.23070000     -71.91670000
H      -49.87260000     -32.59050000     -71.69250000
C      -45.22670000     -34.02800000     -74.63910000
H      -45.78700000     -34.91690000     -74.59510000
H      -45.24550000     -33.51570000     -75.62870000
S      -48.76970000     -33.26170000     -69.72260000
S      -43.41410000     -34.47680000     -74.45920000
C      -48.03750000     -34.89100000     -69.40950000
H      -48.26750000     -35.29830000     -68.47890000
H      -48.61320000     -35.46470000     -70.18070000
C      -43.35250000     -35.90840000     -73.30430000
H      -42.29790000     -36.23920000     -73.15970000
H      -43.75530000     -36.73640000     -73.84340000
C      -44.01140000     -35.66880000     -72.01240000
H      -45.09360000     -35.56860000     -72.22490000
H      -43.79030000     -36.52770000     -71.40760000
C      -46.55090000     -35.04920000     -69.83970000
H      -46.46670000     -35.28420000     -70.88190000
H      -46.18480000     -35.90170000     -69.26540000
C      -45.61300000     -33.89630000     -69.56030000
C      -45.82820000     -32.88830000     -68.59000000
C      -44.40950000     -33.67450000     -70.31030000
H      -46.59980000     -33.02700000     -67.80020000
C      -43.72080000     -32.55760000     -69.79250000
C      -43.61930000     -34.43000000     -71.23740000
C      -42.34300000     -33.93480000     -71.31100000
S      -44.53160000     -31.78650000     -68.48820000
S      -42.16850000     -32.44000000     -70.41540000
H      -41.68440000     -34.36110000     -72.07180000
