40
Properties=species:S:1:pos:R:3 #=T CELL(abcABC):=T 1.889726e+02=T 90.00000=T Traj:=T positionsangstrom=T Step:=T 0=T Bead:=T pbc="F F F"
C      -45.40320000     -32.24240000     -73.22610000
C      -46.06420000     -33.41000000     -73.69070000
C      -47.29030000     -33.71430000     -73.17610000
C      -47.87100000     -32.83060000     -72.19350000
C      -47.24870000     -31.55290000     -71.89060000
C      -45.97690000     -31.33150000     -72.35540000
H      -44.41180000     -31.93490000     -73.65060000
H      -47.84260000     -34.66080000     -73.37650000
H      -47.71820000     -30.83000000     -71.25340000
H      -45.41600000     -30.45090000     -72.02130000
C      -49.11760000     -33.23840000     -71.44210000
H      -49.47830000     -34.22050000     -71.67610000
H      -49.96000000     -32.52580000     -71.60460000
C      -45.43030000     -34.25190000     -74.83290000
H      -45.90020000     -35.27970000     -74.85870000
H      -45.64640000     -33.66940000     -75.71230000
S      -48.84590000     -33.14220000     -69.59530000
S      -43.61770000     -34.50720000     -74.85110000
C      -47.96740000     -34.72530000     -69.30820000
H      -47.96220000     -34.88150000     -68.23910000
H      -48.51700000     -35.63980000     -69.73410000
C      -43.20980000     -35.61620000     -73.43440000
H      -42.14760000     -35.51020000     -73.31320000
H      -43.30500000     -36.67230000     -73.72240000
C      -44.00390000     -35.43020000     -72.12980000
H      -45.04010000     -35.54560000     -72.36360000
H      -43.69560000     -36.31210000     -71.53170000
C      -46.53140000     -34.81000000     -69.90230000
H      -46.67520000     -34.77500000     -70.98590000
H      -46.18590000     -35.81440000     -69.61520000
C      -45.55270000     -33.75690000     -69.62240000
C      -45.61530000     -33.04140000     -68.46210000
C      -44.31100000     -33.55020000     -70.29970000
H      -46.42440000     -33.05870000     -67.80600000
C      -43.60600000     -32.52760000     -69.67930000
C      -43.54570000     -34.18300000     -71.38110000
C      -42.29300000     -33.65810000     -71.45370000
S      -44.33830000     -31.93410000     -68.18150000
S      -41.97850000     -32.34940000     -70.34130000
H      -41.43560000     -34.02940000     -71.99750000
