40
Properties=species:S:1:pos:R:3 #=T CELL(abcABC):=T 1.889726e+02=T 90.00000=T Traj:=T positionsangstrom=T Step:=T 0=T Bead:=T pbc="F F F"
C      -45.18000000     -32.09510000     -73.27500000
C      -45.84410000     -33.18520000     -73.78230000
C      -47.13960000     -33.49280000     -73.32680000
C      -47.72460000     -32.79820000     -72.27790000
C      -47.03770000     -31.67680000     -71.77180000
C      -45.74860000     -31.25860000     -72.31610000
H      -44.21180000     -31.77170000     -73.60600000
H      -47.61580000     -34.38800000     -73.72380000
H      -47.61370000     -31.22860000     -70.92080000
H      -45.21450000     -30.39230000     -71.89680000
C      -49.01520000     -33.38450000     -71.73270000
H      -49.16910000     -34.42060000     -72.14920000
H      -49.85190000     -32.71620000     -71.92510000
C      -45.18080000     -34.01420000     -74.88320000
H      -45.76920000     -34.91330000     -75.07580000
H      -45.14680000     -33.36610000     -75.75630000
S      -49.07090000     -33.35640000     -69.90390000
S      -43.44500000     -34.50820000     -74.58230000
C      -48.02740000     -34.74890000     -69.34700000
H      -47.89330000     -34.69070000     -68.24550000
H      -48.55310000     -35.65180000     -69.53840000
C      -43.40010000     -35.74590000     -73.19310000
H      -42.34850000     -36.03920000     -73.03290000
H      -43.86930000     -36.67340000     -73.60450000
C      -44.14890000     -35.53850000     -71.86270000
H      -45.15200000     -35.54400000     -71.98690000
H      -43.77630000     -36.40100000     -71.23930000
C      -46.61380000     -34.79030000     -69.89290000
H      -46.57330000     -34.75170000     -71.02900000
H      -46.20140000     -35.82420000     -69.71570000
C      -45.64110000     -33.75620000     -69.42450000
C      -45.81310000     -32.83670000     -68.41180000
C      -44.41100000     -33.57880000     -70.18720000
H      -46.69680000     -32.65680000     -67.81810000
C      -43.62620000     -32.52820000     -69.65570000
C      -43.62440000     -34.31470000     -71.17960000
C      -42.43820000     -33.75150000     -71.52250000
S      -44.37470000     -31.75050000     -68.27110000
S      -42.06410000     -32.46760000     -70.37960000
H      -41.60680000     -34.09430000     -72.07340000
