40
Properties=species:S:1:pos:R:3 #=T CELL(abcABC):=T 1.889726e+02=T 90.00000=T Traj:=T positionsangstrom=T Step:=T 0=T Bead:=T pbc="F F F"
C      -45.32450000     -32.10020000     -73.49550000
C      -45.84540000     -33.34850000     -73.78810000
C      -46.99130000     -33.72920000     -73.09150000
C      -47.64960000     -32.87280000     -72.11350000
C      -47.02580000     -31.69650000     -71.80790000
C      -45.83350000     -31.31040000     -72.48270000
H      -44.48550000     -31.79150000     -74.08960000
H      -47.52390000     -34.68070000     -73.20940000
H      -47.44140000     -31.06580000     -70.97760000
H      -45.35810000     -30.31580000     -72.21200000
C      -49.04020000     -33.19230000     -71.56400000
H      -49.37910000     -34.15830000     -71.96720000
H      -49.81250000     -32.57580000     -71.87360000
C      -45.22540000     -34.24200000     -74.76090000
H      -45.47220000     -35.25820000     -74.67390000
H      -45.46340000     -33.89000000     -75.82380000
S      -49.12770000     -33.22320000     -69.71020000
S      -43.32890000     -34.39700000     -74.55520000
C      -48.09730000     -34.77540000     -69.30210000
H      -48.03190000     -34.87770000     -68.21740000
H      -48.60530000     -35.65310000     -69.72050000
C      -43.38170000     -35.88620000     -73.26980000
H      -42.43360000     -36.38340000     -73.08660000
H      -44.01100000     -36.66910000     -73.68330000
C      -44.09680000     -35.44390000     -72.02260000
H      -45.15160000     -35.25670000     -72.33190000
H      -44.12970000     -36.28730000     -71.34440000
C      -46.71610000     -34.86090000     -69.88200000
H      -46.81470000     -34.94980000     -70.93240000
H      -46.36430000     -35.81910000     -69.52250000
C      -45.64920000     -33.78940000     -69.60030000
C      -45.87060000     -32.80590000     -68.62790000
C      -44.35550000     -33.61630000     -70.25100000
H      -46.71640000     -32.79260000     -68.00180000
C      -43.63230000     -32.58220000     -69.67490000
C      -43.50170000     -34.30550000     -71.26520000
C      -42.28770000     -33.67080000     -71.47880000
S      -44.40500000     -31.87420000     -68.27900000
S      -42.08430000     -32.28530000     -70.41730000
H      -41.42200000     -34.00410000     -72.04930000
