40
Properties=species:S:1:pos:R:3 #=T CELL(abcABC):=T 1.889726e+02=T 90.00000=T Traj:=T positionsangstrom=T Step:=T 0=T Bead:=T pbc="F F F"
C      -47.95140000     -30.50430000     -72.14260000
C      -46.57700000     -30.28500000     -71.93460000
C      -45.70310000     -30.76070000     -72.88290000
C      -46.09210000     -31.54240000     -74.03780000
C      -47.47120000     -31.79180000     -74.18120000
C      -48.37540000     -31.21380000     -73.28630000
H      -48.66140000     -30.18080000     -71.43750000
H      -44.65810000     -30.49970000     -72.71350000
H      -47.91610000     -32.21700000     -75.06240000
H      -49.42050000     -31.37520000     -73.42620000
C      -45.01860000     -32.10080000     -74.88370000
H      -44.67070000     -31.21340000     -75.46170000
H      -45.48470000     -32.78620000     -75.64170000
C      -46.19480000     -29.33670000     -70.78990000
H      -45.91630000     -28.32360000     -71.14800000
H      -46.95890000     -29.12300000     -70.03230000
S      -43.47630000     -32.72050000     -74.08820000
S      -44.63050000     -29.91020000     -69.82160000
C      -43.93700000     -34.27600000     -73.37120000
H      -44.97920000     -34.35450000     -73.22840000
H      -43.67470000     -35.14310000     -74.08970000
C      -45.27390000     -31.60290000     -69.12270000
H      -46.35520000     -31.63270000     -69.35380000
H      -44.99560000     -31.61410000     -68.06220000
C      -44.58750000     -32.76000000     -69.85490000
H      -44.50170000     -32.70420000     -70.93420000
H      -43.54870000     -32.82910000     -69.58510000
C      -43.20230000     -34.67700000     -72.11550000
H      -42.93160000     -33.75990000     -71.57280000
H      -42.23690000     -35.16320000     -72.31880000
C      -43.90700000     -35.61460000     -71.20070000
C      -43.86870000     -36.96490000     -71.44100000
C      -44.85100000     -35.34630000     -70.18010000
H      -43.42560000     -37.38540000     -72.35490000
C      -45.40670000     -36.49830000     -69.62440000
C      -45.21150000     -34.16390000     -69.46790000
C      -46.08620000     -34.33810000     -68.45160000
S      -44.98380000     -37.97160000     -70.51880000
S      -46.52040000     -36.11370000     -68.32850000
H      -46.76420000     -33.62060000     -67.95770000
