40
Properties=species:S:1:pos:R:3 #=T CELL(abcABC):=T 1.889726e+02=T 90.00000=T Traj:=T positionsangstrom=T Step:=T 0=T Bead:=T pbc="F F F"
C      -47.99620000     -30.94750000     -72.40020000
C      -46.73330000     -30.35540000     -72.06550000
C      -45.58000000     -30.60690000     -72.87390000
C      -45.75900000     -31.44260000     -73.98830000
C      -46.94860000     -32.07020000     -74.22420000
C      -48.11360000     -31.85190000     -73.46660000
H      -48.85270000     -30.68280000     -71.76390000
H      -44.59510000     -30.17490000     -72.74730000
H      -46.96870000     -32.76220000     -75.03670000
H      -49.06830000     -32.33550000     -73.80320000
C      -44.55960000     -31.65480000     -74.89520000
H      -44.15160000     -30.68770000     -75.10280000
H      -44.87090000     -31.91640000     -75.91800000
C      -46.62300000     -29.46070000     -70.84350000
H      -46.26610000     -28.50770000     -71.31280000
H      -47.52560000     -29.28650000     -70.33810000
S      -43.23540000     -32.68640000     -74.24130000
S      -45.26360000     -29.82010000     -69.68550000
C      -44.19050000     -34.17960000     -73.56570000
H      -45.16940000     -33.97570000     -73.21360000
H      -44.16900000     -34.94660000     -74.41420000
C      -45.50230000     -31.50210000     -68.93150000
H      -46.45640000     -31.75580000     -68.57880000
H      -44.74480000     -31.46910000     -68.11990000
C      -45.24430000     -32.64910000     -69.94370000
H      -46.09500000     -32.51650000     -70.64830000
H      -44.32790000     -32.51310000     -70.53560000
C      -43.50090000     -34.57020000     -72.32590000
H      -43.22350000     -33.71870000     -71.73620000
H      -42.55480000     -34.91370000     -72.52470000
C      -44.21300000     -35.55300000     -71.45850000
C      -44.16200000     -36.90980000     -71.71820000
C      -44.81840000     -35.24400000     -70.15120000
H      -43.65030000     -37.34970000     -72.58710000
C      -45.12780000     -36.49000000     -69.48530000
C      -45.28670000     -34.07730000     -69.39720000
C      -45.89940000     -34.42800000     -68.19610000
S      -44.74330000     -37.94630000     -70.42600000
S      -46.09760000     -36.19800000     -67.99700000
H      -46.56650000     -33.91300000     -67.50230000
