40
Properties=species:S:1:pos:R:3 #=T CELL(abcABC):=T 1.889726e+02=T 90.00000=T Traj:=T positionsangstrom=T Step:=T 0=T Bead:=T pbc="F F F"
C      -48.01530000     -30.47550000     -72.38960000
C      -46.67460000     -30.27330000     -72.00460000
C      -45.66370000     -30.94250000     -72.70900000
C      -45.92900000     -31.66500000     -73.84210000
C      -47.29590000     -31.82820000     -74.25750000
C      -48.35450000     -31.27310000     -73.48890000
H      -48.78480000     -29.85670000     -71.89540000
H      -44.74700000     -30.73780000     -72.25520000
H      -47.59090000     -32.45530000     -75.10820000
H      -49.32960000     -31.37160000     -73.82480000
C      -44.92500000     -32.11970000     -74.85620000
H      -44.72800000     -31.39900000     -75.65580000
H      -45.21900000     -33.05330000     -75.27670000
C      -46.30810000     -29.29830000     -70.75130000
H      -46.01020000     -28.32800000     -71.17200000
H      -47.30370000     -29.30250000     -70.24850000
S      -43.30710000     -32.68530000     -73.99990000
S      -44.92270000     -29.91000000     -69.82700000
C      -43.95710000     -34.24080000     -73.21520000
H      -44.90020000     -33.88170000     -72.69300000
H      -44.23340000     -35.05080000     -73.89500000
C      -45.39960000     -31.56730000     -69.16130000
H      -46.50840000     -31.54520000     -69.16370000
H      -45.10980000     -31.60820000     -68.15920000
C      -44.91730000     -32.72420000     -70.01210000
H      -45.32290000     -32.43620000     -71.00580000
H      -43.79210000     -32.57420000     -70.10400000
C      -43.08540000     -34.71320000     -72.09240000
H      -42.79800000     -33.89470000     -71.44850000
H      -42.18890000     -35.23120000     -72.53850000
C      -43.93930000     -35.63820000     -71.31770000
C      -44.04230000     -36.98650000     -71.63100000
C      -44.77110000     -35.28470000     -70.18430000
H      -43.36090000     -37.44020000     -72.40220000
C      -45.30610000     -36.46340000     -69.63880000
C      -45.24050000     -34.09200000     -69.46400000
C      -45.97680000     -34.43890000     -68.37280000
S      -44.97710000     -37.88580000     -70.47270000
S      -46.33020000     -36.14080000     -68.29370000
H      -46.49740000     -33.79930000     -67.74360000
