40
Properties=species:S:1:pos:R:3 #=T CELL(abcABC):=T 1.889726e+02=T 90.00000=T Traj:=T positionsangstrom=T Step:=T 0=T Bead:=T pbc="F F F"
C      -47.93310000     -30.90150000     -72.45520000
C      -46.73280000     -30.31050000     -72.11730000
C      -45.57330000     -30.50490000     -72.93580000
C      -45.69460000     -31.26540000     -74.06790000
C      -46.94240000     -31.78350000     -74.44280000
C      -48.01580000     -31.73780000     -73.60210000
H      -48.84540000     -30.75170000     -71.87640000
H      -44.61110000     -30.09040000     -72.63510000
H      -46.83360000     -32.36360000     -75.38320000
H      -48.92420000     -32.09830000     -73.98810000
C      -44.46880000     -31.46950000     -74.97920000
H      -43.89260000     -30.60490000     -75.29820000
H      -44.85810000     -32.01910000     -75.82810000
C      -46.56860000     -29.50120000     -70.86200000
H      -46.38890000     -28.51190000     -71.20800000
H      -47.52210000     -29.57220000     -70.29950000
S      -43.27740000     -32.63250000     -74.13690000
S      -45.25160000     -30.08770000     -69.79390000
C      -44.39870000     -33.84460000     -73.27650000
H      -45.36030000     -33.41210000     -72.81620000
H      -44.81950000     -34.48010000     -74.08200000
C      -45.89740000     -31.77260000     -69.30990000
H      -46.96660000     -31.79000000     -69.70200000
H      -45.91470000     -31.70990000     -68.25130000
C      -44.97270000     -32.77620000     -69.87580000
H      -45.15320000     -32.82940000     -70.92320000
H      -43.93670000     -32.42720000     -69.85960000
C      -43.42370000     -34.59500000     -72.28320000
H      -43.10630000     -33.90640000     -71.55700000
H      -42.60310000     -34.97090000     -72.90770000
C      -44.14300000     -35.60740000     -71.38520000
C      -43.95280000     -36.95290000     -71.47340000
C      -44.84750000     -35.38360000     -70.12220000
H      -43.61410000     -37.43650000     -72.43980000
C      -45.32360000     -36.49610000     -69.51050000
C      -45.28900000     -34.23430000     -69.45690000
C      -45.94760000     -34.48930000     -68.30470000
S      -44.72980000     -37.92720000     -70.17410000
S      -46.11810000     -36.16390000     -68.02040000
H      -46.31680000     -33.71270000     -67.65600000
