40
Properties=species:S:1:pos:R:3 #=T CELL(abcABC):=T 1.889726e+02=T 90.00000=T Traj:=T positionsangstrom=T Step:=T 0=T Bead:=T pbc="F F F"
C      -46.81420000     -31.23520000     -67.32970000
C      -46.56310000     -31.03040000     -68.69980000
C      -45.25500000     -31.04580000     -69.25010000
C      -44.16320000     -31.35590000     -68.46280000
C      -44.40810000     -31.71200000     -67.11930000
C      -45.70910000     -31.67250000     -66.61130000
H      -47.74420000     -31.57040000     -66.83050000
H      -45.01540000     -30.72280000     -70.26300000
H      -43.58490000     -32.03340000     -66.47710000
H      -45.77980000     -32.01590000     -65.58590000
C      -42.77050000     -31.42830000     -68.99480000
H      -42.17280000     -31.07340000     -68.16570000
H      -42.51920000     -30.80340000     -69.88630000
C      -47.74190000     -30.72400000     -69.60990000
H      -48.38100000     -29.99050000     -69.13470000
H      -47.49270000     -30.14280000     -70.58830000
S      -42.31060000     -33.20940000     -69.30990000
S      -48.64890000     -32.24850000     -70.10190000
C      -43.42100000     -33.67780000     -70.68890000
H      -44.43290000     -33.36540000     -70.44580000
H      -43.11230000     -33.18490000     -71.62050000
C      -48.00660000     -32.60830000     -71.79280000
H      -47.61550000     -31.66920000     -72.20030000
H      -48.89650000     -32.94070000     -72.36590000
C      -47.00930000     -33.77900000     -71.59290000
H      -46.20580000     -33.49560000     -70.93600000
H      -47.43750000     -34.61240000     -70.97910000
C      -43.50580000     -35.18940000     -71.10110000
H      -44.21520000     -35.78600000     -70.42040000
H      -42.45750000     -35.55280000     -70.95940000
C      -43.87940000     -35.29720000     -72.55330000
C      -42.90880000     -35.61720000     -73.47970000
C      -45.20720000     -35.02500000     -73.20280000
H      -41.91630000     -36.04190000     -73.39270000
C      -45.05710000     -35.20720000     -74.56060000
C      -46.39730000     -34.29350000     -72.89130000
C      -47.18070000     -34.23490000     -74.00320000
S      -43.55230000     -35.80310000     -75.17190000
S      -46.49100000     -34.79530000     -75.49610000
H      -48.13430000     -33.74500000     -74.04540000
