40
Properties=species:S:1:pos:R:3 #=T CELL(abcABC):=T 1.889726e+02=T 90.00000=T Traj:=T positionsangstrom=T Step:=T 0=T Bead:=T pbc="F F F"
C      -47.94440000     -30.81600000     -72.49390000
C      -46.70140000     -30.30460000     -72.09400000
C      -45.63310000     -30.52210000     -72.89770000
C      -45.74900000     -31.32200000     -74.07900000
C      -46.99390000     -31.77450000     -74.48960000
C      -48.11590000     -31.54510000     -73.67540000
H      -48.79670000     -30.69790000     -71.82000000
H      -44.61890000     -30.10720000     -72.81510000
H      -47.07740000     -32.24510000     -75.43850000
H      -49.13220000     -31.89530000     -73.92780000
C      -44.51480000     -31.69510000     -74.95620000
H      -43.99720000     -30.75670000     -75.07750000
H      -44.71220000     -32.00410000     -75.94960000
C      -46.51000000     -29.41290000     -70.92740000
H      -46.17640000     -28.41110000     -71.42010000
H      -47.49560000     -29.11480000     -70.46600000
S      -43.31840000     -32.60030000     -73.97430000
S      -45.20720000     -29.85340000     -69.67240000
C      -44.30770000     -34.07410000     -73.34100000
H      -45.15670000     -33.59310000     -72.85660000
H      -44.66050000     -34.81220000     -74.14980000
C      -45.74150000     -31.63960000     -69.25530000
H      -46.74710000     -31.71030000     -69.62210000
H      -45.78330000     -31.82610000     -68.10480000
C      -44.89560000     -32.73840000     -69.85350000
H      -44.97620000     -32.62210000     -70.98400000
H      -43.87180000     -32.44760000     -69.61060000
C      -43.39000000     -34.80340000     -72.26800000
H      -42.76110000     -34.00790000     -71.76630000
H      -42.55650000     -35.34450000     -72.78470000
C      -44.04600000     -35.74960000     -71.37990000
C      -44.02070000     -37.10810000     -71.59680000
C      -44.84590000     -35.41960000     -70.17870000
H      -43.59730000     -37.56310000     -72.44960000
C      -45.26240000     -36.56060000     -69.49670000
C      -45.27840000     -34.18950000     -69.46300000
C      -46.05630000     -34.46460000     -68.39350000
S      -44.66810000     -38.02700000     -70.27170000
S      -46.26490000     -36.13530000     -68.05630000
H      -46.35770000     -33.62980000     -67.74700000
