40
Properties=species:S:1:pos:R:3 #=T CELL(abcABC):=T 1.889726e+02=T 90.00000=T Traj:=T positionsangstrom=T Step:=T 0=T Bead:=T pbc="F F F"
C      -46.71760000     -31.49550000     -67.42930000
C      -46.49880000     -31.04620000     -68.77320000
C      -45.19360000     -31.01400000     -69.25520000
C      -44.04870000     -31.38090000     -68.43730000
C      -44.32470000     -31.71120000     -67.11950000
C      -45.63990000     -31.82190000     -66.65080000
H      -47.75200000     -31.46160000     -67.06910000
H      -44.87620000     -30.76670000     -70.27240000
H      -43.53430000     -32.07930000     -66.38760000
H      -45.71250000     -31.96320000     -65.58250000
C      -42.64180000     -31.51970000     -69.03030000
H      -41.93750000     -31.19910000     -68.25760000
H      -42.48920000     -31.05940000     -69.99070000
C      -47.70550000     -30.64950000     -69.56810000
H      -48.25590000     -30.13740000     -68.86520000
H      -47.34950000     -30.04350000     -70.38530000
S      -42.36440000     -33.35070000     -69.27930000
S      -48.75310000     -31.97970000     -70.20040000
C      -43.18750000     -33.51810000     -70.92510000
H      -43.98760000     -32.78740000     -71.03730000
H      -42.47550000     -33.27770000     -71.72300000
C      -47.71380000     -32.64670000     -71.52960000
H      -47.01960000     -31.93230000     -71.91510000
H      -48.40080000     -32.73590000     -72.37800000
C      -46.90750000     -34.01380000     -71.42700000
H      -46.13400000     -33.93840000     -70.64440000
H      -47.60830000     -34.76610000     -70.97260000
C      -43.66160000     -34.94150000     -71.07150000
H      -44.48740000     -35.16130000     -70.45500000
H      -42.92530000     -35.71450000     -70.89110000
C      -43.98420000     -35.16080000     -72.54340000
C      -43.01270000     -35.67140000     -73.40250000
C      -45.20270000     -34.80050000     -73.32090000
H      -42.00020000     -36.03120000     -73.06490000
C      -45.08370000     -35.05320000     -74.70300000
C      -46.47700000     -34.38510000     -72.85360000
C      -47.37070000     -34.42480000     -73.92710000
S      -43.51790000     -35.79230000     -75.08040000
S      -46.65940000     -34.87620000     -75.52980000
H      -48.34310000     -34.07720000     -73.80500000
