40
Properties=species:S:1:pos:R:3 #=T CELL(abcABC):=T 1.889726e+02=T 90.00000=T Traj:=T positionsangstrom=T Step:=T 0=T Bead:=T pbc="F F F"
C      -46.82200000     -33.13160000     -69.24220000
C      -46.62600000     -34.50140000     -69.44930000
C      -46.87290000     -35.09540000     -70.68420000
C      -47.55250000     -34.40490000     -71.69560000
C      -47.83420000     -33.04440000     -71.46610000
C      -47.45900000     -32.41690000     -70.24610000
H      -46.45730000     -32.66140000     -68.29370000
H      -46.61990000     -36.10080000     -70.80200000
H      -48.29450000     -32.36980000     -72.23020000
H      -47.76140000     -31.32380000     -70.18410000
C      -47.87190000     -35.10410000     -72.99350000
H      -48.85940000     -34.82730000     -73.29990000
H      -47.80770000     -36.20240000     -72.88990000
C      -46.17290000     -35.34810000     -68.22120000
H      -46.30250000     -34.73550000     -67.30370000
H      -46.79410000     -36.24070000     -67.97630000
S      -46.82340000     -34.71500000     -74.52050000
S      -44.35490000     -35.46470000     -68.23610000
C      -45.10960000     -35.16260000     -73.77890000
H      -45.28050000     -35.42760000     -72.74890000
H      -44.87780000     -36.09350000     -74.24370000
C      -43.79640000     -35.56410000     -69.99220000
H      -44.69550000     -35.60580000     -70.61990000
H      -43.27840000     -36.56230000     -70.09300000
C      -42.75070000     -34.43170000     -70.45650000
H      -41.99250000     -34.28670000     -69.67650000
H      -42.37940000     -34.76160000     -71.44300000
C      -43.96150000     -34.02990000     -73.91200000
H      -43.81500000     -33.84490000     -74.97720000
H      -43.05460000     -34.61640000     -73.54240000
C      -44.24900000     -32.68440000     -73.26910000
C      -44.77470000     -31.59110000     -73.88260000
C      -44.00990000     -32.40520000     -71.81680000
H      -45.13950000     -31.64670000     -74.92080000
C      -44.37490000     -31.10780000     -71.50310000
C      -43.35940000     -33.09880000     -70.68330000
C      -43.51430000     -32.34720000     -69.54660000
S      -45.17020000     -30.26590000     -72.84730000
S      -44.25080000     -30.75600000     -69.78010000
H      -43.27420000     -32.72370000     -68.61430000
