40
Properties=species:S:1:pos:R:3 #=T CELL(abcABC):=T 1.889726e+02=T 90.00000=T Traj:=T positionsangstrom=T Step:=T 0=T Bead:=T pbc="F F F"
C      -46.04070000     -31.66760000     -67.55790000
C      -45.96110000     -31.01750000     -68.82660000
C      -44.71460000     -30.90530000     -69.50880000
C      -43.53460000     -31.32550000     -68.87190000
C      -43.60440000     -32.00640000     -67.63750000
C      -44.83370000     -32.21740000     -67.08860000
H      -47.07460000     -31.68660000     -67.17570000
H      -44.61250000     -30.45810000     -70.54240000
H      -42.77310000     -32.48320000     -67.18230000
H      -44.92400000     -32.84970000     -66.20220000
C      -42.24010000     -31.26200000     -69.69350000
H      -41.47000000     -30.67860000     -69.04910000
H      -42.26970000     -30.71610000     -70.63380000
C      -47.25000000     -30.44700000     -69.52030000
H      -47.55020000     -29.59760000     -68.90650000
H      -47.01490000     -30.06630000     -70.50500000
S      -41.60610000     -32.92150000     -70.26540000
S      -48.56770000     -31.73070000     -69.59370000
C      -42.99150000     -33.31690000     -71.48040000
H      -43.66090000     -32.51060000     -71.73070000
H      -42.51320000     -33.33540000     -72.51060000
C      -48.37590000     -32.58640000     -71.22230000
H      -48.28790000     -31.82590000     -72.00370000
H      -49.30240000     -33.15240000     -71.51450000
C      -47.07460000     -33.46640000     -71.30200000
H      -46.14040000     -32.81590000     -70.97040000
H      -47.11270000     -34.17840000     -70.41530000
C      -43.75680000     -34.69170000     -71.13830000
H      -44.43910000     -34.50200000     -70.32710000
H      -42.95600000     -35.35280000     -70.81170000
C      -44.34140000     -35.19040000     -72.44910000
C      -43.58330000     -36.03700000     -73.22690000
C      -45.60030000     -34.83080000     -72.98460000
H      -42.57880000     -36.43600000     -73.01850000
C      -45.69970000     -35.35750000     -74.32920000
C      -46.79910000     -34.21310000     -72.58520000
C      -47.79660000     -34.29380000     -73.54640000
S      -44.34840000     -36.41400000     -74.78700000
S      -47.26960000     -35.17470000     -74.96090000
H      -48.78650000     -33.81750000     -73.61700000
