40
Properties=species:S:1:pos:R:3 #=T CELL(abcABC):=T 1.889726e+02=T 90.00000=T Traj:=T positionsangstrom=T Step:=T 0=T Bead:=T pbc="F F F"
C      -47.24260000     -33.34620000     -69.54950000
C      -47.12810000     -34.66790000     -70.00870000
C      -47.41080000     -34.88940000     -71.42670000
C      -47.50690000     -33.75260000     -72.27860000
C      -47.81300000     -32.50750000     -71.70350000
C      -47.51590000     -32.25850000     -70.33650000
H      -46.92230000     -33.14670000     -68.51080000
H      -47.45540000     -35.88890000     -71.86010000
H      -48.08070000     -31.75820000     -72.32440000
H      -47.65200000     -31.28340000     -69.93840000
C      -47.67700000     -33.93320000     -73.76210000
H      -47.76910000     -32.91830000     -74.15150000
H      -48.55780000     -34.48790000     -74.01300000
C      -46.65260000     -35.79600000     -69.08280000
H      -47.41180000     -35.84630000     -68.27600000
H      -46.59730000     -36.72370000     -69.67100000
S      -46.21760000     -34.63550000     -74.71160000
S      -45.00520000     -35.52650000     -68.44970000
C      -44.97180000     -35.28610000     -73.56720000
H      -45.35240000     -35.56090000     -72.58230000
H      -44.60410000     -36.21480000     -74.10320000
C      -43.82240000     -35.79430000     -69.81420000
H      -44.41190000     -36.02310000     -70.63760000
H      -43.10920000     -36.65050000     -69.66160000
C      -42.84790000     -34.59740000     -70.09370000
H      -42.15010000     -34.53960000     -69.21450000
H      -42.21330000     -34.95530000     -70.94810000
C      -43.84300000     -34.26090000     -73.22920000
H      -43.35760000     -34.11660000     -74.18000000
H      -43.21750000     -34.69220000     -72.46250000
C      -44.31100000     -32.94700000     -72.73230000
C      -44.78010000     -31.90310000     -73.47950000
C      -43.98890000     -32.54850000     -71.32540000
H      -45.10180000     -31.96700000     -74.53640000
C      -44.33860000     -31.24320000     -71.11060000
C      -43.42310000     -33.23700000     -70.17720000
C      -43.23610000     -32.28390000     -69.22380000
S      -44.96660000     -30.43820000     -72.58520000
S      -43.88160000     -30.70730000     -69.57000000
H      -42.87050000     -32.47020000     -68.19240000
