40
Properties=species:S:1:pos:R:3 #=T CELL(abcABC):=T 1.889726e+02=T 90.00000=T Traj:=T positionsangstrom=T Step:=T 0=T Bead:=T pbc="F F F"
C      -47.99220000     -30.94140000     -71.80930000
C      -46.69030000     -30.35780000     -71.94380000
C      -45.93110000     -30.75180000     -73.05360000
C      -46.31150000     -31.77130000     -73.92310000
C      -47.63910000     -32.28470000     -73.75810000
C      -48.46480000     -31.88430000     -72.71630000
H      -48.46230000     -30.76990000     -70.84820000
H      -44.97720000     -30.24450000     -73.12800000
H      -47.96160000     -33.12670000     -74.28980000
H      -49.50740000     -32.16040000     -72.70700000
C      -45.47690000     -32.19360000     -75.01870000
H      -45.36080000     -31.40500000     -75.77790000
H      -45.84480000     -33.11270000     -75.50520000
C      -46.16410000     -29.39780000     -70.92030000
H      -45.94530000     -28.45670000     -71.42960000
H      -46.95720000     -29.18720000     -70.31270000
S      -43.80810000     -32.54470000     -74.27200000
S      -44.65460000     -30.00900000     -70.05080000
C      -44.21860000     -33.89960000     -73.13590000
H      -45.11460000     -33.52370000     -72.52470000
H      -44.61700000     -34.79500000     -73.67420000
C      -45.31690000     -31.61120000     -69.46100000
H      -46.01280000     -31.96240000     -70.25780000
H      -45.89370000     -31.47420000     -68.52480000
C      -44.26400000     -32.70070000     -69.33720000
H      -43.46650000     -32.56600000     -69.99670000
H      -43.62360000     -32.47700000     -68.47340000
C      -43.12690000     -34.43660000     -72.15210000
H      -42.77810000     -33.61690000     -71.46110000
H      -42.25350000     -34.81470000     -72.63960000
C      -43.76420000     -35.52780000     -71.35540000
C      -43.98540000     -36.79420000     -71.86650000
C      -44.50790000     -35.26280000     -70.05750000
H      -43.56880000     -37.19730000     -72.78770000
C      -45.09550000     -36.40970000     -69.54970000
C      -44.87630000     -34.06110000     -69.28630000
C      -45.89480000     -34.29040000     -68.45120000
S      -44.89790000     -37.82400000     -70.69180000
S      -46.20310000     -36.02130000     -68.25650000
H      -46.20020000     -33.59200000     -67.67380000
