40
Properties=species:S:1:pos:R:3 #=T CELL(abcABC):=T 1.889726e+02=T 90.00000=T Traj:=T positionsangstrom=T Step:=T 0=T Bead:=T pbc="F F F"
C      -46.72380000     -33.09500000     -69.40610000
C      -46.73980000     -34.45690000     -69.70620000
C      -47.06510000     -34.90760000     -70.99970000
C      -47.47830000     -33.98010000     -71.98830000
C      -47.71170000     -32.63790000     -71.57980000
C      -47.25890000     -32.17740000     -70.33000000
H      -46.49400000     -32.76890000     -68.42000000
H      -46.90900000     -36.01940000     -71.21140000
H      -48.14020000     -31.99690000     -72.34160000
H      -47.35770000     -31.11840000     -70.07560000
C      -47.90870000     -34.43200000     -73.38940000
H      -48.69650000     -33.78910000     -73.74340000
H      -48.28740000     -35.44370000     -73.37210000
C      -46.41590000     -35.39310000     -68.60850000
H      -46.84460000     -35.09320000     -67.60810000
H      -46.82550000     -36.41920000     -68.76760000
S      -46.54420000     -34.34770000     -74.70000000
S      -44.55230000     -35.51540000     -68.29390000
C      -45.11530000     -35.23920000     -73.89260000
H      -45.44930000     -35.68380000     -72.94990000
H      -44.70470000     -35.98970000     -74.55980000
C      -43.78560000     -35.66780000     -69.97920000
H      -44.54450000     -35.63590000     -70.81880000
H      -43.30230000     -36.64590000     -70.03460000
C      -42.71980000     -34.57110000     -70.30090000
H      -41.92440000     -34.52630000     -69.58950000
H      -42.19490000     -34.84420000     -71.23170000
C      -43.90440000     -34.33210000     -73.53020000
H      -43.31650000     -34.41860000     -74.44070000
H      -43.40700000     -35.01130000     -72.90880000
C      -44.16310000     -32.90810000     -72.99010000
C      -44.80780000     -31.89520000     -73.67260000
C      -43.92720000     -32.61130000     -71.57280000
H      -45.01560000     -31.81670000     -74.71070000
C      -44.51650000     -31.31090000     -71.27520000
C      -43.30380000     -33.23070000     -70.41460000
C      -43.47800000     -32.41130000     -69.33260000
S      -45.22750000     -30.52570000     -72.63970000
S      -44.31200000     -30.89810000     -69.66280000
H      -43.15270000     -32.61970000     -68.31470000
