40
Properties=species:S:1:pos:R:3 #=T CELL(abcABC):=T 1.889726e+02=T 90.00000=T Traj:=T positionsangstrom=T Step:=T 0=T Bead:=T pbc="F F F"
C      -46.14570000     -31.68470000     -67.62810000
C      -46.04100000     -31.01940000     -68.89890000
C      -44.74130000     -30.76870000     -69.42750000
C      -43.56820000     -31.29220000     -68.80120000
C      -43.68020000     -32.03560000     -67.62330000
C      -44.97210000     -32.19200000     -67.01100000
H      -47.12250000     -31.91450000     -67.15210000
H      -44.82480000     -30.08460000     -70.22450000
H      -42.80900000     -32.41680000     -67.12030000
H      -45.06490000     -32.58240000     -66.01590000
C      -42.26740000     -31.16450000     -69.50210000
H      -41.58740000     -30.88120000     -68.71330000
H      -42.22170000     -30.50730000     -70.36840000
C      -47.27630000     -30.50580000     -69.57730000
H      -47.68640000     -29.60930000     -69.10330000
H      -47.00400000     -30.21910000     -70.62640000
S      -41.75370000     -32.94060000     -70.07910000
S      -48.54810000     -31.75990000     -69.75160000
C      -43.01270000     -33.35680000     -71.36110000
H      -43.85790000     -32.68930000     -71.26640000
H      -42.48590000     -33.27300000     -72.31150000
C      -48.10770000     -32.59800000     -71.31630000
H      -47.97420000     -31.81740000     -72.02570000
H      -49.01580000     -33.16110000     -71.55890000
C      -46.93870000     -33.57390000     -71.27850000
H      -45.98010000     -33.16660000     -70.99380000
H      -47.08040000     -34.34230000     -70.52900000
C      -43.64460000     -34.77900000     -71.14660000
H      -44.40390000     -34.73360000     -70.35210000
H      -42.94490000     -35.61780000     -70.93480000
C      -44.33410000     -35.25010000     -72.43550000
C      -43.51530000     -35.90010000     -73.30680000
C      -45.61810000     -34.97090000     -73.01990000
H      -42.48500000     -36.10460000     -73.10950000
C      -45.72360000     -35.52730000     -74.29690000
C      -46.83300000     -34.30080000     -72.57720000
C      -47.77620000     -34.24880000     -73.61220000
S      -44.23930000     -36.23990000     -74.86090000
S      -47.25830000     -35.16240000     -75.00640000
H      -48.69870000     -33.73460000     -73.59420000
