40
Properties=species:S:1:pos:R:3 #=T CELL(abcABC):=T 1.889726e+02=T 90.00000=T Traj:=T positionsangstrom=T Step:=T 0=T Bead:=T pbc="F F F"
C      -46.80070000     -29.16610000     -72.97440000
C      -46.71820000     -29.91890000     -71.76190000
C      -45.42670000     -30.29800000     -71.33540000
C      -44.27800000     -30.04610000     -72.11020000
C      -44.39740000     -29.33380000     -73.29250000
C      -45.65170000     -28.79940000     -73.64500000
H      -47.81650000     -28.92490000     -73.34930000
H      -45.48460000     -30.95150000     -70.48720000
H      -43.49030000     -29.02730000     -73.78610000
H      -45.72280000     -28.13720000     -74.53220000
C      -42.94360000     -30.53690000     -71.58040000
H      -43.11170000     -31.08630000     -70.65690000
H      -42.16290000     -29.81800000     -71.52280000
C      -47.97910000     -30.30790000     -71.01730000
H      -48.52750000     -29.43070000     -70.78820000
H      -48.66180000     -30.90150000     -71.62300000
S      -42.30200000     -31.91560000     -72.70800000
S      -47.64550000     -31.26540000     -69.41650000
C      -42.79920000     -33.49460000     -71.91050000
H      -41.97650000     -34.18020000     -72.07100000
H      -42.96270000     -33.43190000     -70.76420000
C      -47.22890000     -32.98560000     -70.09000000
H      -47.21300000     -32.96330000     -71.18110000
H      -48.04470000     -33.68390000     -69.71130000
C      -45.89720000     -33.57320000     -69.55450000
H      -44.98950000     -33.04010000     -70.02650000
H      -45.78620000     -33.30930000     -68.52090000
C      -44.07010000     -34.00470000     -72.51900000
H      -44.06420000     -33.94550000     -73.62880000
H      -44.86560000     -33.34250000     -72.26910000
C      -44.48740000     -35.41430000     -72.10550000
C      -44.17910000     -36.56850000     -72.76120000
C      -45.21300000     -35.77910000     -70.89810000
H      -43.60000000     -36.52290000     -73.61490000
C      -45.38830000     -37.14360000     -70.81740000
C      -45.85180000     -35.09020000     -69.75960000
C      -46.50630000     -35.98210000     -68.95540000
S      -44.78330000     -38.06580000     -72.13870000
S      -46.39280000     -37.63930000     -69.44530000
H      -46.95810000     -35.75030000     -67.99280000
