40
Properties=species:S:1:pos:R:3 #=T CELL(abcABC):=T 1.889726e+02=T 90.00000=T Traj:=T positionsangstrom=T Step:=T 0=T Bead:=T pbc="F F F"
C      -47.70910000     -33.02880000     -69.86510000
C      -47.55340000     -34.35140000     -70.28240000
C      -47.61210000     -34.61980000     -71.65620000
C      -47.59060000     -33.62540000     -72.60050000
C      -47.45160000     -32.27170000     -72.13990000
C      -47.61140000     -32.01440000     -70.81420000
H      -47.56450000     -32.70620000     -68.82640000
H      -47.69940000     -35.62730000     -72.02830000
H      -47.48300000     -31.42060000     -72.82570000
H      -47.51690000     -30.98520000     -70.42430000
C      -47.61780000     -33.98560000     -74.04910000
H      -48.45080000     -33.40230000     -74.58840000
H      -47.80410000     -35.03670000     -74.02940000
C      -47.55850000     -35.64830000     -69.37950000
H      -48.40530000     -35.45780000     -68.63580000
H      -47.73380000     -36.53750000     -69.97230000
S      -45.84970000     -33.66280000     -74.68500000
S      -45.91650000     -35.68600000     -68.42500000
C      -44.66720000     -34.71210000     -73.69300000
H      -45.14810000     -34.84180000     -72.72160000
H      -44.55200000     -35.73790000     -74.04660000
C      -44.74630000     -36.23620000     -69.83670000
H      -45.42980000     -36.42310000     -70.65480000
H      -44.26880000     -37.25140000     -69.60760000
C      -43.59980000     -35.33920000     -70.24780000
H      -42.77110000     -35.50720000     -69.48970000
H      -43.15520000     -35.66860000     -71.23210000
C      -43.30790000     -33.98810000     -73.59550000
H      -42.91500000     -33.72660000     -74.68550000
H      -42.61970000     -34.78630000     -73.32960000
C      -43.26860000     -32.78050000     -72.73380000
C      -43.34620000     -31.50120000     -73.19940000
C      -43.60520000     -32.86070000     -71.30950000
H      -43.30910000     -31.24210000     -74.29130000
C      -43.98950000     -31.60550000     -70.85900000
C      -43.70310000     -33.87300000     -70.22630000
C      -44.08500000     -33.26740000     -69.04850000
S      -43.71920000     -30.28080000     -71.94620000
S      -44.26030000     -31.47980000     -69.14160000
H      -44.23780000     -33.74640000     -68.06750000
