40
Properties=species:S:1:pos:R:3 #=T CELL(abcABC):=T 1.889726e+02=T 90.00000=T Traj:=T positionsangstrom=T Step:=T 0=T Bead:=T pbc="F F F"
C      -46.87550000     -29.35050000     -72.75630000
C      -46.64860000     -30.00020000     -71.54010000
C      -45.32430000     -30.42070000     -71.20590000
C      -44.25360000     -30.18620000     -72.04240000
C      -44.43170000     -29.48780000     -73.20590000
C      -45.71980000     -29.15910000     -73.60310000
H      -47.87920000     -29.02560000     -73.09020000
H      -45.14590000     -30.86450000     -70.23630000
H      -43.54520000     -29.22960000     -73.83090000
H      -45.87760000     -28.67890000     -74.56830000
C      -42.86990000     -30.60100000     -71.64530000
H      -42.74700000     -30.90040000     -70.60910000
H      -42.20910000     -29.71180000     -71.65610000
C      -48.01140000     -30.42760000     -70.87780000
H      -48.55520000     -29.45830000     -70.72930000
H      -48.58270000     -31.00840000     -71.59380000
S      -42.06150000     -31.92900000     -72.70570000
S      -48.10130000     -31.34600000     -69.31390000
C      -42.86210000     -33.54160000     -72.07200000
H      -42.09240000     -34.33030000     -72.34160000
H      -42.90040000     -33.46470000     -70.99230000
C      -47.65950000     -33.02890000     -69.77490000
H      -48.04790000     -33.25770000     -70.80420000
H      -48.24850000     -33.65940000     -69.16580000
C      -46.16340000     -33.46230000     -69.68960000
H      -45.59790000     -33.11250000     -70.51520000
H      -45.75500000     -33.09230000     -68.74690000
C      -44.16270000     -33.91950000     -72.75700000
H      -43.98170000     -33.97300000     -73.80180000
H      -45.02530000     -33.17460000     -72.61260000
C      -44.59340000     -35.25130000     -72.30710000
C      -44.27680000     -36.38590000     -72.98720000
C      -45.23740000     -35.61930000     -71.00650000
H      -43.83340000     -36.51220000     -73.99020000
C      -45.19660000     -37.04130000     -70.88870000
C      -45.98990000     -34.97650000     -69.85710000
C      -46.50240000     -35.90090000     -69.00440000
S      -44.43830000     -37.93580000     -72.20050000
S      -46.10670000     -37.53560000     -69.40840000
H      -47.17510000     -35.65440000     -68.20600000
