40
Properties=species:S:1:pos:R:3 #=T CELL(abcABC):=T 1.889726e+02=T 90.00000=T Traj:=T positionsangstrom=T Step:=T 0=T Bead:=T pbc="F F F"
C      -46.80580000     -29.11850000     -73.00520000
C      -46.69430000     -29.84310000     -71.83610000
C      -45.40040000     -30.22230000     -71.45530000
C      -44.21630000     -29.91340000     -72.14980000
C      -44.38830000     -29.19400000     -73.32260000
C      -45.63330000     -28.74140000     -73.70780000
H      -47.76800000     -28.70140000     -73.25130000
H      -45.27240000     -30.66660000     -70.46080000
H      -43.61330000     -28.97760000     -74.05530000
H      -45.81670000     -28.17930000     -74.61850000
C      -42.84100000     -30.43550000     -71.68900000
H      -42.77080000     -30.55580000     -70.56220000
H      -42.03180000     -29.72840000     -71.79750000
C      -47.92210000     -30.28070000     -71.06540000
H      -48.54000000     -29.40640000     -70.70300000
H      -48.54340000     -30.95320000     -71.72320000
S      -42.21030000     -31.91710000     -72.58900000
S      -47.57660000     -31.30410000     -69.60620000
C      -42.95830000     -33.45380000     -71.80190000
H      -42.11900000     -34.10120000     -71.91320000
H      -43.15640000     -33.27310000     -70.78600000
C      -47.01450000     -32.91730000     -70.37970000
H      -46.42560000     -32.77510000     -71.30740000
H      -47.81660000     -33.50160000     -70.74360000
C      -46.05350000     -33.61620000     -69.43420000
H      -45.13770000     -33.05890000     -69.48900000
H      -46.44930000     -33.61140000     -68.44040000
C      -44.17610000     -34.09700000     -72.54030000
H      -43.89950000     -34.13140000     -73.60440000
H      -45.01070000     -33.39550000     -72.48740000
C      -44.59990000     -35.52150000     -72.06250000
C      -44.24810000     -36.62860000     -72.80050000
C      -45.32970000     -35.82270000     -70.87330000
H      -43.64330000     -36.45880000     -73.67220000
C      -45.45600000     -37.17600000     -70.73790000
C      -45.89510000     -35.15020000     -69.71010000
C      -46.52210000     -36.01070000     -68.80160000
S      -44.77470000     -38.13850000     -72.03170000
S      -46.44330000     -37.67730000     -69.34150000
H      -47.16610000     -35.75410000     -67.97900000
