40
Properties=species:S:1:pos:R:3 #=T CELL(abcABC):=T 1.889726e+02=T 90.00000=T Traj:=T positionsangstrom=T Step:=T 0=T Bead:=T pbc="F F F"
C      -42.36010000     -36.67200000     -71.20330000
C      -42.34850000     -35.37720000     -70.61190000
C      -42.40900000     -34.24930000     -71.42010000
C      -42.63730000     -34.36550000     -72.76800000
C      -42.77090000     -35.65700000     -73.34810000
C      -42.66910000     -36.79010000     -72.54290000
H      -42.20940000     -37.55130000     -70.61010000
H      -42.43260000     -33.31140000     -70.91320000
H      -42.88580000     -35.77360000     -74.38560000
H      -42.63850000     -37.78560000     -73.01090000
C      -42.55810000     -33.05380000     -73.52480000
H      -41.60530000     -32.92920000     -74.13550000
H      -42.64110000     -32.19530000     -72.72430000
C      -42.19580000     -35.25770000     -69.11360000
H      -42.72400000     -36.10150000     -68.54480000
H      -41.17790000     -35.26120000     -68.70610000
S      -43.91880000     -32.78150000     -74.72760000
S      -43.05250000     -33.73950000     -68.40560000
C      -45.25910000     -32.25260000     -73.61180000
H      -44.97970000     -31.49000000     -72.91860000
H      -46.03510000     -31.84110000     -74.21510000
C      -44.59360000     -33.75410000     -69.39110000
H      -45.47480000     -34.23220000     -68.89120000
H      -44.45950000     -34.28430000     -70.26320000
C      -44.99450000     -32.32290000     -69.70240000
H      -44.63520000     -31.72670000     -68.84860000
H      -44.42490000     -32.03690000     -70.52740000
C      -45.81410000     -33.46130000     -72.83260000
H      -45.09590000     -33.71180000     -72.04440000
H      -45.87640000     -34.26000000     -73.57130000
C      -47.15480000     -33.10590000     -72.23980000
C      -48.31220000     -33.16000000     -73.01580000
C      -47.34110000     -32.53640000     -70.93440000
H      -48.38800000     -33.50660000     -74.05060000
C      -48.72540000     -32.31220000     -70.64530000
C      -46.46200000     -32.14090000     -69.86980000
C      -47.11020000     -31.51010000     -68.84110000
S      -49.72160000     -32.54170000     -72.04620000
S      -48.87830000     -31.54310000     -69.08530000
H      -46.62280000     -31.08250000     -68.00650000
