40
Properties=species:S:1:pos:R:3 #=T CELL(abcABC):=T 1.889726e+02=T 90.00000=T Traj:=T positionsangstrom=T Step:=T 0=T Bead:=T pbc="F F F"
C      -46.95450000     -29.80800000     -73.05340000
C      -46.79800000     -30.29450000     -71.74670000
C      -45.51790000     -30.37700000     -71.19470000
C      -44.40380000     -30.04520000     -71.96430000
C      -44.53290000     -29.63560000     -73.30030000
C      -45.82660000     -29.42090000     -73.81040000
H      -47.95730000     -29.44430000     -73.27960000
H      -45.30290000     -30.62190000     -70.14870000
H      -43.70790000     -29.34950000     -73.89840000
H      -45.96690000     -28.87570000     -74.70730000
C      -43.00750000     -30.27600000     -71.40210000
H      -43.10970000     -30.45090000     -70.31210000
H      -42.32410000     -29.37240000     -71.53970000
C      -48.02880000     -30.40750000     -70.98300000
H      -48.49510000     -29.41220000     -70.71690000
H      -48.79320000     -30.92400000     -71.57930000
S      -42.15760000     -31.70590000     -72.32340000
S      -47.81480000     -31.19970000     -69.25240000
C      -42.96680000     -33.34540000     -71.83350000
H      -42.13390000     -34.02280000     -71.89490000
H      -43.32260000     -33.44060000     -70.81100000
C      -47.75320000     -33.12630000     -69.68750000
H      -48.27940000     -33.31780000     -70.59240000
H      -48.34580000     -33.50300000     -68.83890000
C      -46.31010000     -33.53570000     -69.86520000
H      -45.96930000     -32.99000000     -70.75860000
H      -45.70890000     -33.10020000     -69.05270000
C      -44.09740000     -33.89340000     -72.76530000
H      -43.75050000     -34.00060000     -73.85370000
H      -44.91660000     -33.19520000     -72.76620000
C      -44.46220000     -35.29420000     -72.35380000
C      -44.06950000     -36.42570000     -73.00930000
C      -45.27860000     -35.63390000     -71.15660000
H      -43.60280000     -36.36690000     -74.01000000
C      -45.16040000     -37.01030000     -70.95390000
C      -46.01620000     -35.05680000     -70.01460000
C      -46.45610000     -35.99970000     -69.12070000
S      -44.43320000     -37.94370000     -72.25380000
S      -45.93510000     -37.61810000     -69.44510000
H      -46.92710000     -35.76080000     -68.13870000
