40
Properties=species:S:1:pos:R:3 #=T CELL(abcABC):=T 1.889726e+02=T 90.00000=T Traj:=T positionsangstrom=T Step:=T 0=T Bead:=T pbc="F F F"
C      -47.34820000     -32.47790000     -70.02840000
C      -47.74390000     -33.61660000     -70.70480000
C      -47.59820000     -33.57960000     -72.07230000
C      -46.97230000     -32.43110000     -72.72720000
C      -46.62580000     -31.27630000     -72.00970000
C      -46.72430000     -31.31700000     -70.62140000
H      -47.58390000     -32.44020000     -68.89200000
H      -47.88820000     -34.47340000     -72.56030000
H      -46.39000000     -30.35940000     -72.47690000
H      -46.37750000     -30.47360000     -70.10100000
C      -46.90500000     -32.38640000     -74.21320000
H      -46.95830000     -31.41240000     -74.62650000
H      -47.72230000     -32.99360000     -74.56070000
C      -48.20340000     -34.85690000     -69.94250000
H      -48.20200000     -34.60800000     -68.85530000
H      -49.21870000     -35.07190000     -70.18160000
S      -45.13630000     -32.76700000     -74.88400000
S      -47.42030000     -36.52810000     -70.21110000
C      -44.81350000     -34.42640000     -74.16030000
H      -45.74370000     -34.68790000     -73.58390000
H      -44.70600000     -35.20480000     -74.93380000
C      -45.85800000     -35.98950000     -70.99790000
H      -46.02790000     -35.15570000     -71.66770000
H      -45.60980000     -36.80320000     -71.76950000
C      -44.58970000     -35.85890000     -70.11290000
H      -44.71820000     -36.33200000     -69.14730000
H      -43.76280000     -36.36410000     -70.61020000
C      -43.60770000     -34.50730000     -73.12710000
H      -42.64180000     -34.60400000     -73.61870000
H      -43.79950000     -35.49010000     -72.69160000
C      -43.46000000     -33.43420000     -72.11360000
C      -42.97990000     -32.18540000     -72.43590000
C      -43.67340000     -33.48980000     -70.72620000
H      -42.55180000     -31.99980000     -73.47350000
C      -43.56490000     -32.21230000     -70.07350000
C      -44.23130000     -34.45490000     -69.77170000
C      -44.35900000     -33.94350000     -68.52570000
S      -42.98050000     -30.98390000     -71.11530000
S      -44.00160000     -32.28180000     -68.36330000
H      -44.94680000     -34.36730000     -67.70850000
