40
Properties=species:S:1:pos:R:3 #=T CELL(abcABC):=T 1.889726e+02=T 90.00000=T Traj:=T positionsangstrom=T Step:=T 0=T Bead:=T pbc="F F F"
C      -47.30860000     -31.00600000     -72.69370000
C      -47.12980000     -30.77470000     -71.30340000
C      -45.82240000     -30.31780000     -70.87120000
C      -44.76400000     -30.28930000     -71.76690000
C      -45.00170000     -30.50270000     -73.17320000
C      -46.24000000     -30.99370000     -73.62250000
H      -48.27190000     -31.47590000     -73.01920000
H      -45.58700000     -30.17170000     -69.82980000
H      -44.24040000     -30.47970000     -73.91040000
H      -46.39310000     -31.39700000     -74.59620000
C      -43.33930000     -30.07400000     -71.35950000
H      -43.29390000     -30.42890000     -70.30920000
H      -42.95670000     -29.04660000     -71.47360000
C      -48.23690000     -30.90870000     -70.29230000
H      -48.56920000     -29.88700000     -70.07000000
H      -49.08450000     -31.39160000     -70.71070000
S      -42.00180000     -31.10780000     -72.24820000
S      -47.65060000     -31.50710000     -68.64930000
C      -42.50370000     -32.80720000     -71.69810000
H      -41.68310000     -33.52850000     -71.94280000
H      -42.44140000     -32.85940000     -70.61640000
C      -47.50310000     -33.32100000     -69.03900000
H      -48.28220000     -33.66140000     -69.68730000
H      -47.65600000     -33.97260000     -68.12670000
C      -46.18180000     -33.62930000     -69.72130000
H      -46.24500000     -32.95320000     -70.63150000
H      -45.27690000     -33.39290000     -69.11860000
C      -43.77510000     -33.30380000     -72.31840000
H      -43.70600000     -33.23280000     -73.43860000
H      -44.64020000     -32.76530000     -72.02730000
C      -44.04660000     -34.78560000     -72.06060000
C      -43.52370000     -35.65900000     -72.94950000
C      -44.93840000     -35.47900000     -71.15050000
H      -42.76650000     -35.35320000     -73.70590000
C      -45.04980000     -36.84000000     -71.44120000
C      -46.02120000     -34.99130000     -70.28930000
C      -46.81420000     -36.03510000     -69.85490000
S      -44.08150000     -37.35060000     -72.83550000
S      -46.40030000     -37.57910000     -70.66600000
H      -47.41790000     -36.09970000     -69.01980000
