40
Properties=species:S:1:pos:R:3 #=T CELL(abcABC):=T 1.889726e+02=T 90.00000=T Traj:=T positionsangstrom=T Step:=T 0=T Bead:=T pbc="F F F"
C      -46.60970000     -31.85110000     -72.62340000
C      -47.22470000     -33.14650000     -72.73000000
C      -47.86910000     -33.70380000     -71.63830000
C      -47.96220000     -33.02330000     -70.39990000
C      -47.59090000     -31.65860000     -70.38860000
C      -46.96440000     -31.11060000     -71.51690000
H      -45.99620000     -31.52200000     -73.44740000
H      -48.15000000     -34.71210000     -71.83050000
H      -47.80280000     -31.06200000     -69.46820000
H      -46.85910000     -30.02850000     -71.60710000
C      -48.37050000     -33.69490000     -69.12520000
H      -48.84680000     -34.62720000     -69.41700000
H      -48.95400000     -33.08870000     -68.52560000
C      -47.25800000     -33.75450000     -74.09020000
H      -47.70760000     -34.75750000     -74.08980000
H      -47.95140000     -33.15570000     -74.65900000
S      -47.10810000     -34.28190000     -67.85810000
S      -45.68500000     -33.60050000     -75.04980000
C      -45.88120000     -35.57360000     -68.46610000
H      -45.21190000     -35.65060000     -67.67320000
H      -46.46110000     -36.48750000     -68.46740000
C      -44.74890000     -35.16890000     -74.54720000
H      -43.79880000     -35.18560000     -75.13580000
H      -45.35840000     -36.00290000     -75.05210000
C      -44.59720000     -35.25550000     -73.06810000
H      -45.49850000     -35.43280000     -72.50770000
H      -43.89950000     -36.14910000     -72.89430000
C      -45.24840000     -35.37680000     -69.76380000
H      -46.03850000     -35.46260000     -70.56390000
H      -44.54680000     -36.19870000     -69.97000000
C      -44.41840000     -34.08540000     -69.82630000
C      -44.16060000     -33.27770000     -68.77200000
C      -43.73370000     -33.70400000     -71.05550000
H      -44.52230000     -33.25450000     -67.75040000
C      -43.00080000     -32.54510000     -70.91050000
C      -43.85160000     -34.13770000     -72.49990000
C      -42.95980000     -33.32180000     -73.25930000
S      -43.09500000     -31.91800000     -69.27270000
S      -42.27730000     -31.92930000     -72.40000000
H      -42.90050000     -33.31960000     -74.41000000
