40
Properties=species:S:1:pos:R:3 #=T CELL(abcABC):=T 1.889726e+02=T 90.00000=T Traj:=T positionsangstrom=T Step:=T 0=T Bead:=T pbc="F F F"
C      -47.58300000     -30.38640000     -71.67330000
C      -46.98160000     -30.41700000     -70.38260000
C      -45.65870000     -30.17690000     -70.26970000
C      -44.81610000     -29.95540000     -71.40780000
C      -45.40770000     -29.92150000     -72.65180000
C      -46.80230000     -30.15290000     -72.80660000
H      -48.70950000     -30.58050000     -71.57440000
H      -45.20980000     -30.29120000     -69.28360000
H      -44.78810000     -29.69510000     -73.57520000
H      -47.23700000     -30.04760000     -73.83910000
C      -43.29810000     -29.86110000     -71.22780000
H      -43.06670000     -30.00510000     -70.18000000
H      -43.03390000     -28.90140000     -71.65660000
C      -47.83370000     -30.72100000     -69.14770000
H      -47.71520000     -29.94970000     -68.40710000
H      -48.93470000     -30.85030000     -69.31320000
S      -42.20150000     -31.11420000     -72.00910000
S      -47.24190000     -32.28180000     -68.36190000
C      -42.97440000     -32.77950000     -71.74210000
H      -42.24650000     -33.55720000     -71.48810000
H      -43.51710000     -32.72480000     -70.83930000
C      -47.65250000     -33.52390000     -69.60700000
H      -48.68500000     -33.47330000     -69.85060000
H      -47.57600000     -34.35950000     -68.85170000
C      -46.64120000     -33.70040000     -70.69060000
H      -46.78350000     -33.11060000     -71.58650000
H      -45.69690000     -33.30770000     -70.32790000
C      -43.84060000     -33.36790000     -72.84380000
H      -43.33890000     -33.20090000     -73.79220000
H      -44.76660000     -32.79750000     -72.97260000
C      -44.07010000     -34.81090000     -72.60980000
C      -43.17510000     -35.69370000     -73.13550000
C      -45.22660000     -35.47560000     -71.94250000
H      -42.28020000     -35.34440000     -73.60580000
C      -45.10080000     -36.87140000     -72.02730000
C      -46.27540000     -35.16800000     -71.01760000
C      -46.93120000     -36.29790000     -70.52530000
S      -43.63080000     -37.37370000     -72.92900000
S      -46.20350000     -37.80200000     -71.10700000
H      -47.52660000     -36.26130000     -69.60120000
