40
Properties=species:S:1:pos:R:3 #=T CELL(abcABC):=T 1.889726e+02=T 90.00000=T Traj:=T positionsangstrom=T Step:=T 0=T Bead:=T pbc="F F F"
C      -46.40950000     -29.82200000     -72.26380000
C      -45.21050000     -30.33400000     -72.86850000
C      -45.29490000     -31.34790000     -73.80360000
C      -46.50500000     -31.96180000     -74.12730000
C      -47.65450000     -31.59940000     -73.41680000
C      -47.57490000     -30.57540000     -72.44450000
H      -46.48730000     -29.04380000     -71.41760000
H      -44.38330000     -31.73170000     -74.33320000
H      -48.60120000     -32.11790000     -73.62540000
H      -48.60430000     -30.23220000     -72.08960000
C      -46.53040000     -32.95640000     -75.23110000
H      -46.14280000     -32.45770000     -76.08770000
H      -47.58000000     -33.17330000     -75.37590000
C      -43.87070000     -29.64950000     -72.52080000
H      -43.30740000     -29.12150000     -73.34590000
H      -44.01840000     -28.85830000     -71.77050000
S      -45.68360000     -34.50960000     -74.92490000
S      -42.67930000     -30.96130000     -71.80340000
C      -46.23870000     -35.11100000     -73.30260000
H      -47.12500000     -34.57020000     -72.99900000
H      -46.64250000     -36.14120000     -73.55300000
C      -43.68600000     -31.99560000     -70.55640000
H      -44.63990000     -32.07600000     -71.06430000
H      -43.93150000     -31.48540000     -69.64060000
C      -42.93800000     -33.26230000     -70.03470000
H      -42.67090000     -33.90250000     -70.92700000
H      -42.03540000     -32.94240000     -69.53630000
C      -45.12910000     -35.13910000     -72.29540000
H      -44.50780000     -34.27580000     -72.36920000
H      -44.39520000     -35.91850000     -72.60280000
C      -45.64330000     -35.32130000     -70.86540000
C      -46.73560000     -36.14650000     -70.58870000
C      -44.99410000     -34.93010000     -69.57050000
H      -47.40210000     -36.47800000     -71.34190000
C      -45.66130000     -35.36590000     -68.45680000
C      -43.83920000     -34.05540000     -69.16150000
C      -43.78780000     -33.93010000     -67.80570000
S      -47.02940000     -36.43460000     -68.82990000
S      -45.02120000     -34.78620000     -66.91670000
H      -43.07140000     -33.42760000     -67.17110000
