40
Properties=species:S:1:pos:R:3 #=T CELL(abcABC):=T 1.889726e+02=T 90.00000=T Traj:=T positionsangstrom=T Step:=T 0=T Bead:=T pbc="F F F"
C      -46.57420000     -30.18840000     -72.49560000
C      -45.44660000     -30.51270000     -73.23950000
C      -45.45290000     -31.64080000     -74.11210000
C      -46.61320000     -32.39670000     -74.17430000
C      -47.84270000     -31.97530000     -73.53220000
C      -47.76390000     -30.82930000     -72.63800000
H      -46.45840000     -29.29960000     -71.92340000
H      -44.49570000     -31.97740000     -74.56720000
H      -48.69320000     -32.59780000     -73.66020000
H      -48.56580000     -30.50810000     -72.05030000
C      -46.68230000     -33.66020000     -75.03920000
H      -46.61910000     -33.20150000     -76.09130000
H      -47.61940000     -34.22500000     -74.93530000
C      -44.10710000     -29.79640000     -73.06120000
H      -43.57710000     -29.72470000     -74.01640000
H      -44.30360000     -28.77950000     -72.61150000
S      -45.21290000     -34.68850000     -74.87920000
S      -43.01990000     -30.81070000     -71.93390000
C      -45.54800000     -35.45630000     -73.25280000
H      -46.56090000     -35.88360000     -73.30450000
H      -44.91660000     -36.27830000     -73.12310000
C      -44.04870000     -31.65190000     -70.56900000
H      -44.93850000     -32.07340000     -71.02960000
H      -44.44050000     -31.08780000     -69.70670000
C      -43.13960000     -32.82710000     -69.98930000
H      -42.86600000     -33.45080000     -70.84850000
H      -42.09870000     -32.62480000     -69.67680000
C      -45.24760000     -34.46960000     -72.05190000
H      -45.75380000     -33.49560000     -71.99080000
H      -44.22440000     -34.30700000     -72.12360000
C      -45.61280000     -35.07050000     -70.70720000
C      -46.58870000     -35.95860000     -70.44740000
C      -44.95050000     -34.59610000     -69.42650000
H      -47.13450000     -36.57190000     -71.20440000
C      -45.52100000     -35.27830000     -68.31560000
C      -43.97250000     -33.63060000     -69.01970000
C      -43.80530000     -33.52970000     -67.64990000
S      -46.80130000     -36.46020000     -68.75600000
S      -44.89720000     -34.71540000     -66.73080000
H      -43.15460000     -32.82960000     -67.10080000
