40
Properties=species:S:1:pos:R:3 #=T CELL(abcABC):=T 1.889726e+02=T 90.00000=T Traj:=T positionsangstrom=T Step:=T 0=T Bead:=T pbc="F F F"
C      -46.89570000     -30.30740000     -72.30940000
C      -45.60690000     -30.67720000     -72.81860000
C      -45.46950000     -31.63650000     -73.82780000
C      -46.61950000     -32.41940000     -74.12860000
C      -47.85880000     -32.15920000     -73.49520000
C      -48.02510000     -31.13880000     -72.61020000
H      -47.04120000     -29.45190000     -71.72000000
H      -44.47550000     -31.86510000     -74.18280000
H      -48.65430000     -32.93920000     -73.58190000
H      -48.94520000     -30.83820000     -72.21320000
C      -46.49180000     -33.43980000     -75.27530000
H      -46.09610000     -32.88200000     -76.18300000
H      -47.34970000     -34.03610000     -75.55490000
C      -44.49470000     -29.72100000     -72.48740000
H      -44.17650000     -29.25030000     -73.41330000
H      -44.74730000     -28.97910000     -71.78720000
S      -45.26740000     -34.83180000     -74.88480000
S      -42.87830000     -30.51930000     -71.83770000
C      -45.82130000     -35.45130000     -73.24480000
H      -46.95850000     -35.25300000     -73.03630000
H      -45.76370000     -36.49960000     -73.20420000
C      -43.72130000     -31.43050000     -70.47260000
H      -44.75300000     -31.63270000     -70.69800000
H      -43.69510000     -30.84720000     -69.50880000
C      -43.12370000     -32.79800000     -70.18610000
H      -42.90110000     -33.30400000     -71.10010000
H      -42.12880000     -32.77740000     -69.85720000
C      -44.99140000     -34.87230000     -72.07850000
H      -44.91020000     -33.79340000     -72.32140000
H      -43.96410000     -35.23180000     -72.20050000
C      -45.60230000     -35.23860000     -70.73070000
C      -46.56750000     -36.20590000     -70.49060000
C      -44.91890000     -34.66000000     -69.64100000
H      -47.17980000     -36.58980000     -71.17930000
C      -45.49430000     -35.20510000     -68.44840000
C      -43.92260000     -33.65690000     -69.27460000
C      -43.70820000     -33.51090000     -67.91990000
S      -46.76050000     -36.42580000     -68.70780000
S      -44.86230000     -34.49650000     -66.99650000
H      -42.89990000     -32.87670000     -67.54550000
