40
Properties=species:S:1:pos:R:3 #=T CELL(abcABC):=T 1.889726e+02=T 90.00000=T Traj:=T positionsangstrom=T Step:=T 0=T Bead:=T pbc="F F F"
C      -42.76550000     -36.68560000     -71.48260000
C      -42.55450000     -35.46490000     -70.84530000
C      -42.35650000     -34.27480000     -71.62840000
C      -42.43080000     -34.35400000     -73.04380000
C      -42.69870000     -35.57930000     -73.62450000
C      -42.84110000     -36.75010000     -72.91140000
H      -42.80220000     -37.64660000     -70.93920000
H      -42.13180000     -33.31140000     -71.07370000
H      -42.65760000     -35.56330000     -74.73920000
H      -42.98890000     -37.69270000     -73.44160000
C      -42.22120000     -33.08270000     -73.88580000
H      -41.45090000     -33.19600000     -74.73420000
H      -42.03880000     -32.19790000     -73.32330000
C      -42.35070000     -35.37480000     -69.33540000
H      -42.59360000     -36.34510000     -68.94340000
H      -41.20130000     -35.35030000     -69.26110000
S      -43.81250000     -32.77970000     -74.78180000
S      -42.96060000     -34.01000000     -68.32840000
C      -45.14830000     -32.32800000     -73.54930000
H      -44.64250000     -31.85020000     -72.78230000
H      -45.85650000     -31.75820000     -74.08000000
C      -44.72740000     -33.83380000     -68.68560000
H      -45.33590000     -33.82500000     -67.85990000
H      -45.05480000     -34.68570000     -69.34960000
C      -44.96840000     -32.57330000     -69.58180000
H      -44.38680000     -31.80660000     -69.10530000
H      -44.52970000     -32.78800000     -70.57530000
C      -46.02350000     -33.50410000     -73.03380000
H      -45.37150000     -34.12550000     -72.43580000
H      -46.40240000     -34.03380000     -73.88310000
C      -47.29430000     -33.03820000     -72.26560000
C      -48.53060000     -33.02790000     -72.87950000
C      -47.39280000     -32.50250000     -70.81980000
H      -48.77750000     -33.41960000     -73.79520000
C      -48.63590000     -32.00500000     -70.55830000
C      -46.45150000     -32.22360000     -69.72330000
C      -47.07030000     -31.50720000     -68.72950000
S      -49.76320000     -32.54550000     -71.71900000
S      -48.73420000     -31.17100000     -69.02150000
H      -46.76510000     -31.09970000     -67.69630000
