40
Properties=species:S:1:pos:R:3 #=T CELL(abcABC):=T 1.889726e+02=T 90.00000=T Traj:=T positionsangstrom=T Step:=T 0=T Bead:=T pbc="F F F"
C      -46.19080000     -30.07930000     -71.85830000
C      -45.11320000     -30.43370000     -72.69720000
C      -45.31770000     -31.30590000     -73.79520000
C      -46.63770000     -31.79980000     -73.98120000
C      -47.76560000     -31.37750000     -73.20120000
C      -47.50010000     -30.54750000     -72.11410000
H      -45.83930000     -29.41650000     -71.04200000
H      -44.53750000     -31.55860000     -74.51870000
H      -48.71290000     -31.89210000     -73.28140000
H      -48.27750000     -30.20330000     -71.47970000
C      -46.89690000     -32.65580000     -75.18080000
H      -46.53680000     -32.23730000     -76.09600000
H      -47.98250000     -32.85080000     -75.25280000
C      -43.70660000     -29.92890000     -72.50670000
H      -43.25730000     -29.69060000     -73.52100000
H      -43.63060000     -29.18250000     -71.74160000
S      -46.08770000     -34.37220000     -74.95890000
S      -42.53420000     -31.29340000     -72.03860000
C      -46.58990000     -34.90480000     -73.26670000
H      -47.55310000     -34.53250000     -73.00690000
H      -46.67620000     -36.00200000     -73.31730000
C      -43.39110000     -31.82260000     -70.51260000
H      -44.43830000     -31.72370000     -70.67850000
H      -43.09270000     -31.18740000     -69.71700000
C      -43.03500000     -33.33130000     -70.34500000
H      -43.19790000     -33.79550000     -71.33080000
H      -42.03040000     -33.54150000     -70.06570000
C      -45.52060000     -34.58860000     -72.21830000
H      -45.29820000     -33.56860000     -72.22930000
H      -44.54200000     -35.04370000     -72.54940000
C      -45.81070000     -35.15600000     -70.80910000
C      -46.84770000     -35.97830000     -70.49360000
C      -45.03820000     -34.82970000     -69.61490000
H      -47.53970000     -36.29730000     -71.25030000
C      -45.58170000     -35.37920000     -68.43960000
C      -43.83350000     -34.03420000     -69.31720000
C      -43.50170000     -34.13790000     -67.98760000
S      -46.92340000     -36.46510000     -68.81750000
S      -44.64550000     -35.06270000     -67.04470000
H      -42.63330000     -33.72810000     -67.54810000
