40
Properties=species:S:1:pos:R:3 #=T CELL(abcABC):=T 1.889726e+02=T 90.00000=T Traj:=T positionsangstrom=T Step:=T 0=T Bead:=T pbc="F F F"
C      -46.19290000     -30.33590000     -71.47900000
C      -45.25440000     -30.56770000     -72.46160000
C      -45.58210000     -31.26710000     -73.60380000
C      -46.90950000     -31.80960000     -73.73310000
C      -47.82440000     -31.57950000     -72.66940000
C      -47.47480000     -30.80780000     -71.58150000
H      -45.91570000     -29.74370000     -70.61060000
H      -44.88600000     -31.46850000     -74.40000000
H      -48.72010000     -32.10000000     -72.77490000
H      -48.28590000     -30.48480000     -70.92890000
C      -47.30670000     -32.68830000     -74.87530000
H      -47.20670000     -32.15760000     -75.80850000
H      -48.32630000     -33.09660000     -74.69810000
C      -43.91930000     -29.91530000     -72.55580000
H      -43.61580000     -29.59140000     -73.52930000
H      -43.94170000     -29.03230000     -71.91130000
S      -46.16150000     -34.09930000     -74.95840000
S      -42.48360000     -31.09660000     -72.14930000
C      -46.67160000     -34.88550000     -73.31620000
H      -47.68570000     -34.47400000     -73.10200000
H      -46.73150000     -36.00550000     -73.46890000
C      -43.35770000     -32.14270000     -70.88450000
H      -44.43370000     -32.22380000     -71.11530000
H      -43.25420000     -31.62360000     -69.92150000
C      -42.86600000     -33.62010000     -70.74210000
H      -42.93420000     -34.14790000     -71.69950000
H      -41.77270000     -33.51540000     -70.50460000
C      -45.71210000     -34.55050000     -72.19580000
H      -45.67380000     -33.41680000     -72.12120000
H      -44.65120000     -34.86970000     -72.48500000
C      -45.96720000     -35.12680000     -70.86450000
C      -47.07800000     -35.76950000     -70.33950000
C      -44.93070000     -34.97620000     -69.84730000
H      -48.02500000     -35.89750000     -70.87420000
C      -45.36350000     -35.48840000     -68.61110000
C      -43.62270000     -34.28270000     -69.67150000
C      -43.12690000     -34.37090000     -68.38560000
S      -46.97610000     -35.97150000     -68.59390000
S      -44.15900000     -35.27870000     -67.37610000
H      -42.27300000     -33.81220000     -67.95050000
