40
Properties=species:S:1:pos:R:3 #=T CELL(abcABC):=T 1.889726e+02=T 90.00000=T Traj:=T positionsangstrom=T Step:=T 0=T Bead:=T pbc="F F F"
C      -46.15560000     -30.06080000     -71.72380000
C      -45.18770000     -30.31950000     -72.71680000
C      -45.46340000     -31.17620000     -73.76030000
C      -46.65140000     -31.76740000     -73.90570000
C      -47.65150000     -31.52610000     -72.93080000
C      -47.38930000     -30.72930000     -71.78230000
H      -45.91290000     -29.30550000     -70.93470000
H      -44.60710000     -31.39480000     -74.39020000
H      -48.56520000     -32.18620000     -72.95220000
H      -48.14290000     -30.69740000     -70.96450000
C      -46.90100000     -32.69420000     -75.03760000
H      -46.46480000     -32.37090000     -75.98790000
H      -47.98810000     -32.80310000     -75.26320000
C      -43.76570000     -29.77680000     -72.50240000
H      -43.40720000     -29.20390000     -73.32950000
H      -43.79850000     -29.18330000     -71.64900000
S      -46.27520000     -34.46400000     -74.89090000
S      -42.59590000     -31.21630000     -72.14700000
C      -46.68000000     -34.94330000     -73.16850000
H      -47.47620000     -34.33630000     -72.74660000
H      -46.95440000     -36.00630000     -73.12030000
C      -43.43310000     -32.05540000     -70.76340000
H      -44.48510000     -32.19930000     -70.95540000
H      -43.31240000     -31.55080000     -69.82610000
C      -42.91440000     -33.46850000     -70.55790000
H      -43.00270000     -33.92070000     -71.58200000
H      -41.85070000     -33.40420000     -70.24830000
C      -45.48280000     -34.68440000     -72.18860000
H      -45.32410000     -33.54660000     -72.05990000
H      -44.55950000     -35.00470000     -72.70090000
C      -45.74840000     -35.24880000     -70.86230000
C      -46.88040000     -35.90620000     -70.48340000
C      -44.93730000     -34.99280000     -69.68690000
H      -47.64040000     -36.18260000     -71.17590000
C      -45.42990000     -35.52810000     -68.49360000
C      -43.68510000     -34.29620000     -69.49480000
C      -43.30720000     -34.22840000     -68.18420000
S      -47.10330000     -36.07810000     -68.73590000
S      -44.44280000     -34.99840000     -67.15250000
H      -42.40370000     -33.79850000     -67.76380000
