40
Properties=species:S:1:pos:R:3 #=T CELL(abcABC):=T 1.889726e+02=T 90.00000=T Traj:=T positionsangstrom=T Step:=T 0=T Bead:=T pbc="F F F"
C      -46.10700000     -30.04200000     -71.52890000
C      -45.23340000     -30.25380000     -72.58600000
C      -45.69400000     -31.13680000     -73.55890000
C      -46.98920000     -31.65970000     -73.57050000
C      -47.83320000     -31.43770000     -72.49060000
C      -47.35750000     -30.60170000     -71.42370000
H      -45.72760000     -29.46720000     -70.67220000
H      -45.05360000     -31.48600000     -74.39700000
H      -48.88240000     -31.82040000     -72.44290000
H      -48.06310000     -30.46940000     -70.62760000
C      -47.39240000     -32.41610000     -74.77170000
H      -46.99000000     -31.83950000     -75.68540000
H      -48.50980000     -32.31920000     -74.80020000
C      -43.80420000     -29.85900000     -72.33570000
H      -43.43840000     -29.09100000     -73.01070000
H      -43.61110000     -29.34660000     -71.34140000
S      -46.78280000     -34.14900000     -74.93150000
S      -42.75170000     -31.35810000     -72.36390000
C      -46.86080000     -34.81500000     -73.18000000
H      -47.92010000     -34.66480000     -72.80080000
H      -46.94200000     -35.93970000     -73.27240000
C      -42.95710000     -32.12850000     -70.69680000
H      -43.99140000     -31.86010000     -70.38690000
H      -42.31310000     -31.49100000     -70.02820000
C      -42.64370000     -33.64220000     -70.68270000
H      -42.78630000     -34.05990000     -71.67150000
H      -41.57240000     -33.65290000     -70.47780000
C      -45.68800000     -34.43620000     -72.26810000
H      -45.76050000     -33.36340000     -72.18240000
H      -44.72790000     -34.76270000     -72.65570000
C      -45.83930000     -34.94760000     -70.87620000
C      -46.87050000     -35.69530000     -70.47200000
C      -44.83530000     -34.80730000     -69.83170000
H      -47.77960000     -35.93260000     -71.01480000
C      -45.25920000     -35.39360000     -68.61330000
C      -43.42910000     -34.39250000     -69.61950000
C      -42.84660000     -34.65950000     -68.40370000
S      -46.87640000     -36.10100000     -68.79020000
S      -44.01350000     -35.58670000     -67.40450000
H      -41.88250000     -34.44000000     -68.13540000
