40
Properties=species:S:1:pos:R:3 #=T CELL(abcABC):=T 1.889726e+02=T 90.00000=T Traj:=T positionsangstrom=T Step:=T 0=T Bead:=T pbc="F F F"
C      -48.20390000     -30.06120000     -70.80660000
C      -47.67240000     -31.14080000     -70.05600000
C      -46.31530000     -31.10310000     -69.64360000
C      -45.47380000     -30.06690000     -70.05430000
C      -45.93200000     -29.10290000     -70.97190000
C      -47.32270000     -29.00800000     -71.23780000
H      -49.24160000     -30.11870000     -71.05010000
H      -45.99620000     -31.87270000     -69.05990000
H      -45.26000000     -28.34570000     -71.36440000
H      -47.74910000     -28.22450000     -71.87550000
C      -43.99570000     -30.08670000     -69.70600000
H      -43.81260000     -30.68490000     -68.76710000
H      -43.67330000     -29.10630000     -69.34220000
C      -48.67640000     -32.22180000     -69.73500000
H      -49.52870000     -31.69850000     -69.16250000
H      -49.12380000     -32.69790000     -70.59000000
S      -42.82040000     -30.50310000     -71.07500000
S      -48.12280000     -33.57340000     -68.61900000
C      -43.06280000     -32.29940000     -71.21580000
H      -42.12620000     -32.81170000     -71.04440000
H      -43.76340000     -32.73560000     -70.38290000
C      -47.14560000     -34.79000000     -69.64630000
H      -47.89860000     -35.54770000     -69.94060000
H      -46.51060000     -35.30610000     -68.95930000
C      -46.37180000     -34.22340000     -70.81580000
H      -46.95990000     -33.51600000     -71.39370000
H      -45.54440000     -33.64460000     -70.46960000
C      -43.69840000     -32.81680000     -72.57470000
H      -43.12240000     -32.32550000     -73.40910000
H      -44.74230000     -32.46470000     -72.65630000
C      -43.56890000     -34.23320000     -72.82490000
C      -42.54090000     -34.79410000     -73.59810000
C      -44.53100000     -35.24270000     -72.44860000
H      -41.79210000     -34.23100000     -74.12380000
C      -44.18070000     -36.50590000     -72.91480000
C      -45.79240000     -35.38290000     -71.63160000
C      -46.35230000     -36.64900000     -71.64960000
S      -42.71870000     -36.48340000     -73.80610000
S      -45.31480000     -37.71560000     -72.66570000
H      -47.06670000     -37.21970000     -70.97920000
