40
Properties=species:S:1:pos:R:3 #=T CELL(abcABC):=T 1.889726e+02=T 90.00000=T Traj:=T positionsangstrom=T Step:=T 0=T Bead:=T pbc="F F F"
C      -45.80320000     -29.19980000     -71.75800000
C      -45.03100000     -30.11550000     -72.47530000
C      -45.72020000     -31.20400000     -73.20800000
C      -47.14000000     -31.23620000     -73.17890000
C      -47.82460000     -30.33500000     -72.30510000
C      -47.17970000     -29.39400000     -71.62480000
H      -45.35740000     -28.47880000     -71.13080000
H      -45.06400000     -31.89840000     -73.84860000
H      -48.95850000     -30.39120000     -72.22760000
H      -47.77160000     -28.88260000     -70.89820000
C      -48.08580000     -32.08330000     -74.01540000
H      -48.21500000     -31.54040000     -75.00670000
H      -49.04170000     -31.97430000     -73.52230000
C      -43.53090000     -29.93290000     -72.59860000
H      -43.43520000     -29.44930000     -73.57940000
H      -43.12880000     -29.29180000     -71.77410000
S      -47.58710000     -33.84800000     -74.34170000
S      -42.60320000     -31.56960000     -72.73800000
C      -47.41390000     -34.73220000     -72.68660000
H      -48.42700000     -34.53170000     -72.07250000
H      -47.31950000     -35.84450000     -72.94980000
C      -43.19210000     -32.55090000     -71.25460000
H      -44.27820000     -32.38220000     -71.20310000
H      -42.84750000     -32.17530000     -70.36300000
C      -42.91800000     -34.01180000     -71.41600000
H      -43.14890000     -34.50540000     -72.35760000
H      -41.83040000     -34.08460000     -71.36810000
C      -46.09350000     -34.36740000     -71.99020000
H      -45.99570000     -33.30150000     -71.84370000
H      -45.23530000     -34.48000000     -72.61850000
C      -45.96930000     -35.13650000     -70.70920000
C      -46.99840000     -35.74680000     -69.99180000
C      -44.73930000     -35.16780000     -69.95790000
H      -48.03530000     -35.78310000     -70.32410000
C      -44.90180000     -35.77850000     -68.72630000
C      -43.37110000     -34.73960000     -70.18540000
C      -42.52780000     -35.08010000     -69.13950000
S      -46.46820000     -36.40230000     -68.41870000
S      -43.35170000     -36.00870000     -67.85410000
H      -41.49900000     -34.86640000     -69.17970000
