40
Properties=species:S:1:pos:R:3 #=T CELL(abcABC):=T 1.889726e+02=T 90.00000=T Traj:=T positionsangstrom=T Step:=T 0=T Bead:=T pbc="F F F"
C      -42.94310000     -36.82150000     -71.54180000
C      -42.72750000     -35.58400000     -70.84110000
C      -42.49980000     -34.36820000     -71.59520000
C      -42.72800000     -34.33990000     -72.96980000
C      -43.15690000     -35.52730000     -73.57590000
C      -43.24660000     -36.73720000     -72.89160000
H      -42.93070000     -37.76100000     -71.01240000
H      -42.10410000     -33.49310000     -71.11070000
H      -43.36590000     -35.43080000     -74.64960000
H      -43.48830000     -37.65450000     -73.43410000
C      -42.46820000     -32.98910000     -73.67920000
H      -41.66430000     -33.13670000     -74.32590000
H      -42.05880000     -32.21880000     -73.06140000
C      -42.66810000     -35.60180000     -69.38210000
H      -43.47290000     -36.27610000     -69.02560000
H      -41.70510000     -36.02810000     -69.10860000
S      -43.97140000     -32.47840000     -74.68750000
S      -42.71690000     -33.99550000     -68.54830000
C      -45.27760000     -32.37250000     -73.42230000
H      -44.87590000     -31.78800000     -72.50550000
H      -46.08960000     -31.72100000     -73.73650000
C      -44.47430000     -33.49260000     -68.54610000
H      -44.68480000     -32.94870000     -67.57450000
H      -45.10330000     -34.30560000     -68.53080000
C      -44.79570000     -32.75190000     -69.88290000
H      -43.96260000     -32.00580000     -69.90340000
H      -44.67600000     -33.47030000     -70.65880000
C      -46.03930000     -33.71050000     -72.90260000
H      -45.28840000     -34.26620000     -72.35460000
H      -46.31370000     -34.34590000     -73.77960000
C      -47.23460000     -33.11940000     -72.24330000
C      -48.44090000     -32.98000000     -72.89050000
C      -47.19080000     -32.53010000     -70.89440000
H      -48.76580000     -33.28250000     -73.91470000
C      -48.46520000     -32.11090000     -70.53410000
C      -46.23840000     -32.26110000     -69.86090000
C      -46.82450000     -31.80040000     -68.72210000
S      -49.64480000     -32.28890000     -71.76280000
S      -48.51870000     -31.34550000     -68.97530000
H      -46.34330000     -31.43280000     -67.89050000
