40
Properties=species:S:1:pos:R:3 #=T CELL(abcABC):=T 1.889726e+02=T 90.00000=T Traj:=T positionsangstrom=T Step:=T 0=T Bead:=T pbc="F F F"
C      -45.26160000     -30.30450000     -72.07860000
C      -45.29160000     -30.98750000     -73.31640000
C      -46.48160000     -31.55870000     -73.70010000
C      -47.65140000     -31.59650000     -72.89180000
C      -47.53390000     -31.00200000     -71.65550000
C      -46.38990000     -30.32610000     -71.21720000
H      -44.40270000     -29.76180000     -71.71780000
H      -46.37940000     -32.16770000     -74.60260000
H      -48.33830000     -30.86400000     -70.88250000
H      -46.26510000     -29.94830000     -70.19750000
C      -48.88040000     -32.45310000     -73.29100000
H      -49.24200000     -32.11760000     -74.24980000
H      -49.69960000     -32.33460000     -72.60380000
C      -44.02090000     -31.02940000     -74.11080000
H      -44.13080000     -30.81860000     -75.15600000
H      -43.33040000     -30.29530000     -73.64680000
S      -48.48560000     -34.32920000     -73.40620000
S      -43.25820000     -32.76150000     -74.19860000
C      -47.97510000     -34.69800000     -71.60760000
H      -48.44270000     -33.84530000     -70.98910000
H      -48.41290000     -35.62250000     -71.21330000
C      -43.10690000     -33.14590000     -72.43350000
H      -43.89230000     -32.63790000     -71.80940000
H      -42.14470000     -32.82440000     -72.03560000
C      -43.20430000     -34.64510000     -72.14410000
H      -44.07660000     -35.06460000     -72.65930000
H      -42.27130000     -35.03860000     -72.52890000
C      -46.44870000     -34.69510000     -71.57280000
H      -45.99600000     -33.76620000     -72.01760000
H      -46.11870000     -35.49990000     -72.12240000
C      -45.87940000     -34.73290000     -70.08960000
C      -46.66840000     -34.55380000     -68.97140000
C      -44.47440000     -34.67330000     -69.78790000
H      -47.75530000     -34.40240000     -68.88210000
C      -44.14790000     -34.58030000     -68.42850000
C      -43.20900000     -34.74420000     -70.59970000
C      -42.14460000     -34.91300000     -69.76080000
S      -45.63470000     -34.50650000     -67.53260000
S      -42.43380000     -34.54590000     -68.01920000
H      -41.06520000     -34.86810000     -69.99390000
