40
Properties=species:S:1:pos:R:3 #=T CELL(abcABC):=T 1.889726e+02=T 90.00000=T Traj:=T positionsangstrom=T Step:=T 0=T Bead:=T pbc="F F F"
C      -44.97640000     -30.48290000     -71.86650000
C      -45.08160000     -30.85950000     -73.20110000
C      -46.34620000     -31.22930000     -73.72570000
C      -47.45080000     -31.41100000     -72.88890000
C      -47.29100000     -31.06720000     -71.52180000
C      -46.14410000     -30.43630000     -71.07460000
H      -43.98580000     -30.15660000     -71.59100000
H      -46.52830000     -31.62630000     -74.70550000
H      -48.17010000     -31.06680000     -70.80270000
H      -46.03550000     -30.06570000     -70.07200000
C      -48.65900000     -32.02600000     -73.44320000
H      -48.85070000     -31.68490000     -74.46420000
H      -49.58230000     -31.73610000     -72.85000000
C      -43.85350000     -30.91560000     -74.08270000
H      -44.08630000     -30.53290000     -75.00850000
H      -43.07910000     -30.21130000     -73.66440000
S      -48.54460000     -33.97550000     -73.50840000
S      -43.13710000     -32.57690000     -74.01940000
C      -48.01730000     -34.38080000     -71.81930000
H      -48.28180000     -33.55170000     -71.21670000
H      -48.65830000     -35.20380000     -71.47420000
C      -42.69040000     -33.05370000     -72.30960000
H      -43.30990000     -32.39670000     -71.67240000
H      -41.70480000     -32.79780000     -72.05750000
C      -42.96840000     -34.53900000     -72.02870000
H      -43.83410000     -34.84770000     -72.51170000
H      -42.10170000     -35.14540000     -72.38790000
C      -46.49630000     -34.71730000     -71.70600000
H      -45.98550000     -33.93680000     -72.32470000
H      -46.18770000     -35.61850000     -72.19390000
C      -45.96990000     -34.72850000     -70.29630000
C      -46.82520000     -34.72500000     -69.14820000
C      -44.55440000     -34.79760000     -69.88010000
H      -47.88460000     -34.70160000     -69.03980000
C      -44.43410000     -34.86200000     -68.50360000
C      -43.28390000     -34.86350000     -70.53110000
C      -42.26320000     -35.01760000     -69.63940000
S      -45.99320000     -34.73720000     -67.61690000
S      -42.76550000     -35.10150000     -67.99000000
H      -41.16710000     -34.98390000     -69.85370000
