40
Properties=species:S:1:pos:R:3 #=T CELL(abcABC):=T 1.889726e+02=T 90.00000=T Traj:=T positionsangstrom=T Step:=T 0=T Bead:=T pbc="F F F"
C      -47.76460000     -32.67190000     -72.32230000
C      -47.63420000     -34.03400000     -72.11680000
C      -47.39620000     -34.39160000     -70.77310000
C      -47.38080000     -33.43120000     -69.69280000
C      -47.41930000     -32.04110000     -69.99510000
C      -47.73540000     -31.67950000     -71.30140000
H      -47.99890000     -32.37080000     -73.36720000
H      -47.41070000     -35.45700000     -70.53260000
H      -47.39630000     -31.23570000     -69.22370000
H      -47.78640000     -30.62500000     -71.58250000
C      -47.17520000     -33.97060000     -68.34060000
H      -46.98400000     -35.02700000     -68.29450000
H      -48.01150000     -33.72600000     -67.65730000
C      -47.69360000     -35.14810000     -73.09790000
H      -47.69830000     -36.15550000     -72.46410000
H      -48.71320000     -35.02550000     -73.56500000
S      -45.77150000     -33.20600000     -67.38160000
S      -46.45060000     -35.22190000     -74.49310000
C      -44.22680000     -34.15580000     -67.80190000
H      -43.44180000     -33.50010000     -67.44460000
H      -44.13110000     -35.13830000     -67.30990000
C      -45.21710000     -36.24020000     -73.68110000
H      -44.47210000     -36.42580000     -74.39750000
H      -45.68490000     -37.15490000     -73.36920000
C      -44.49200000     -35.61030000     -72.42210000
H      -45.13650000     -35.76640000     -71.54520000
H      -43.58850000     -36.18480000     -72.30030000
C      -43.99890000     -34.38890000     -69.27710000
H      -44.79130000     -35.00910000     -69.71590000
H      -43.07330000     -34.94330000     -69.40620000
C      -43.93200000     -33.10880000     -70.06630000
C      -43.73010000     -31.85580000     -69.60200000
C      -43.98720000     -33.14330000     -71.49250000
H      -43.67820000     -31.58030000     -68.55490000
C      -43.60100000     -31.99750000     -72.05490000
C      -44.10770000     -34.17160000     -72.55870000
C      -43.60890000     -33.73020000     -73.74970000
S      -43.39560000     -30.70690000     -70.97160000
S      -43.25970000     -31.97340000     -73.73420000
H      -43.93360000     -34.08850000     -74.76860000
