40
Properties=species:S:1:pos:R:3 #=T CELL(abcABC):=T 1.889726e+02=T 90.00000=T Traj:=T positionsangstrom=T Step:=T 0=T Bead:=T pbc="F F F"
C      -45.15410000     -30.42500000     -71.82770000
C      -45.12760000     -31.05580000     -73.04890000
C      -46.31080000     -31.66460000     -73.54030000
C      -47.48500000     -31.62290000     -72.82770000
C      -47.46020000     -31.04500000     -71.54820000
C      -46.32310000     -30.48370000     -71.08070000
H      -44.26100000     -29.86760000     -71.46650000
H      -46.18430000     -32.18820000     -74.50470000
H      -48.27550000     -30.92190000     -70.91370000
H      -46.34810000     -30.03370000     -70.08440000
C      -48.78010000     -32.28590000     -73.24550000
H      -49.08760000     -31.94760000     -74.26560000
H      -49.63370000     -32.19090000     -72.52630000
C      -43.92710000     -31.12390000     -73.99280000
H      -44.25190000     -30.97390000     -75.04600000
H      -43.19000000     -30.36500000     -73.81270000
S      -48.55870000     -34.17230000     -73.46910000
S      -43.23760000     -32.72910000     -74.22090000
C      -47.94380000     -34.55910000     -71.80890000
H      -48.41850000     -33.87280000     -71.07530000
H      -48.25660000     -35.53170000     -71.57970000
C      -43.07180000     -33.24510000     -72.47420000
H      -44.00480000     -32.85850000     -72.07750000
H      -42.30690000     -32.64250000     -71.98340000
C      -43.04260000     -34.67450000     -72.15260000
H      -43.78610000     -35.29970000     -72.71280000
H      -42.09950000     -35.10160000     -72.31460000
C      -46.43610000     -34.42730000     -71.61390000
H      -46.13150000     -33.45580000     -71.98210000
H      -45.93500000     -35.25910000     -72.21710000
C      -45.91630000     -34.58620000     -70.20450000
C      -46.65640000     -34.56730000     -69.02910000
C      -44.51690000     -34.61960000     -69.91460000
H      -47.76700000     -34.58330000     -68.99810000
C      -44.27860000     -34.71430000     -68.50330000
C      -43.28480000     -34.70890000     -70.66380000
C      -42.24860000     -34.66160000     -69.80190000
S      -45.73170000     -34.62900000     -67.55870000
S      -42.61430000     -34.67520000     -68.04030000
H      -41.13430000     -34.80560000     -70.05140000
