40
Properties=species:S:1:pos:R:3 #=T CELL(abcABC):=T 1.889726e+02=T 90.00000=T Traj:=T positionsangstrom=T Step:=T 0=T Bead:=T pbc="F F F"
C      -45.07970000     -30.22650000     -71.68790000
C      -44.92990000     -30.69380000     -73.00320000
C      -46.04810000     -31.23370000     -73.63940000
C      -47.34000000     -31.31590000     -73.01370000
C      -47.37410000     -30.95700000     -71.65700000
C      -46.20660000     -30.47390000     -70.97300000
H      -44.15230000     -29.95880000     -71.22350000
H      -46.02290000     -31.62460000     -74.65120000
H      -48.21100000     -31.25170000     -71.07790000
H      -46.23850000     -30.13090000     -69.91380000
C      -48.56820000     -32.01010000     -73.61290000
H      -48.66350000     -31.74960000     -74.67580000
H      -49.43520000     -31.69740000     -73.00130000
C      -43.58170000     -30.63010000     -73.63090000
H      -43.55830000     -30.35220000     -74.70590000
H      -42.90580000     -29.97830000     -73.10430000
S      -48.48350000     -33.86170000     -73.66260000
S      -42.97320000     -32.55280000     -73.94560000
C      -48.06090000     -34.27640000     -71.91360000
H      -48.63480000     -33.60320000     -71.24400000
H      -48.30440000     -35.32750000     -71.66070000
C      -42.95500000     -33.12890000     -72.17990000
H      -43.70400000     -32.60900000     -71.67680000
H      -41.99040000     -32.96630000     -71.68090000
C      -43.15410000     -34.64380000     -72.04780000
H      -44.04360000     -35.02120000     -72.57390000
H      -42.36910000     -35.23120000     -72.38340000
C      -46.53410000     -34.19700000     -71.66120000
H      -46.27500000     -33.18010000     -71.84900000
H      -46.08470000     -34.88780000     -72.36460000
C      -45.99730000     -34.57440000     -70.29560000
C      -46.82810000     -34.62180000     -69.17890000
C      -44.61220000     -34.88120000     -69.92380000
H      -47.90590000     -34.37980000     -69.26820000
C      -44.49920000     -34.97150000     -68.54980000
C      -43.32700000     -35.03110000     -70.58170000
C      -42.36150000     -35.31550000     -69.69000000
S      -46.02720000     -35.09820000     -67.70720000
S      -42.88640000     -35.25710000     -68.01030000
H      -41.35470000     -35.35010000     -69.83940000
