40
Properties=species:S:1:pos:R:3 #=T CELL(abcABC):=T 1.889726e+02=T 90.00000=T Traj:=T positionsangstrom=T Step:=T 0=T Bead:=T pbc="F F F"
C      -45.96240000     -29.92880000     -73.43470000
C      -45.74930000     -31.16270000     -73.98580000
C      -46.67680000     -32.19840000     -73.80520000
C      -47.83900000     -32.00010000     -73.10670000
C      -48.02070000     -30.83240000     -72.44580000
C      -47.11450000     -29.79720000     -72.64530000
H      -45.21050000     -29.07770000     -73.32370000
H      -46.52920000     -33.18020000     -74.25200000
H      -48.98180000     -30.59610000     -71.91840000
H      -47.29860000     -28.91090000     -72.10780000
C      -48.88890000     -33.08860000     -73.11110000
H      -49.30530000     -32.97830000     -74.16780000
H      -49.76060000     -32.73920000     -72.52450000
C      -44.48590000     -31.38400000     -74.84090000
H      -44.79780000     -31.71510000     -75.79480000
H      -43.91760000     -30.46870000     -74.98590000
S      -48.56300000     -34.84110000     -72.80690000
S      -43.36770000     -32.89310000     -74.31770000
C      -47.80340000     -34.72710000     -71.04230000
H      -48.48730000     -34.03550000     -70.54040000
H      -47.99660000     -35.68430000     -70.61550000
C      -43.26630000     -32.77940000     -72.51950000
H      -44.24230000     -32.34540000     -72.10860000
H      -42.47940000     -32.03400000     -72.30950000
C      -42.93170000     -34.17770000     -71.93270000
H      -43.60390000     -34.92050000     -72.36400000
H      -41.86360000     -34.40540000     -72.19300000
C      -46.34750000     -34.40900000     -71.12490000
H      -46.17990000     -33.51330000     -71.63410000
H      -45.89130000     -35.23320000     -71.70050000
C      -45.61260000     -34.40380000     -69.77390000
C      -46.32730000     -34.56570000     -68.59110000
C      -44.17840000     -34.43860000     -69.52580000
H      -47.40630000     -34.70790000     -68.51110000
C      -43.84840000     -34.55750000     -68.19100000
C      -42.99450000     -34.22010000     -70.39320000
C      -41.82440000     -34.21780000     -69.63680000
S      -45.25790000     -34.66550000     -67.13130000
S      -42.12280000     -34.44240000     -67.86950000
H      -40.82030000     -33.95250000     -69.87320000
