40
Properties=species:S:1:pos:R:3 #=T CELL(abcABC):=T 1.889726e+02=T 90.00000=T Traj:=T positionsangstrom=T Step:=T 0=T Bead:=T pbc="F F F"
C      -45.39050000     -30.25300000     -72.40350000
C      -45.40260000     -31.00630000     -73.57470000
C      -46.49240000     -31.82210000     -73.87640000
C      -47.64700000     -31.85210000     -72.97680000
C      -47.59310000     -31.06590000     -71.85050000
C      -46.52480000     -30.21800000     -71.59560000
H      -44.60540000     -29.53010000     -72.18590000
H      -46.54750000     -32.52100000     -74.73330000
H      -48.49090000     -30.98790000     -71.12980000
H      -46.41270000     -29.73760000     -70.62580000
C      -48.87920000     -32.63600000     -73.25100000
H      -49.20860000     -32.43310000     -74.27690000
H      -49.67890000     -32.28900000     -72.54460000
C      -44.21630000     -31.11180000     -74.45590000
H      -44.41300000     -31.15400000     -75.53780000
H      -43.65060000     -30.15770000     -74.26400000
S      -48.59450000     -34.49420000     -73.10460000
S      -43.31730000     -32.70900000     -74.29420000
C      -47.87860000     -34.51630000     -71.41320000
H      -48.23570000     -33.66220000     -70.85960000
H      -48.33670000     -35.33970000     -70.95040000
C      -43.38740000     -32.96170000     -72.46100000
H      -44.36220000     -32.66760000     -72.09870000
H      -42.68560000     -32.25490000     -72.10060000
C      -42.91670000     -34.42740000     -72.06330000
H      -43.50740000     -35.13920000     -72.59750000
H      -41.86560000     -34.55620000     -72.36520000
C      -46.34250000     -34.87960000     -71.41580000
H      -45.78610000     -34.25230000     -72.16080000
H      -46.30040000     -35.95420000     -71.67390000
C      -45.78530000     -34.66700000     -70.02340000
C      -46.52590000     -34.45960000     -68.88120000
C      -44.34070000     -34.57870000     -69.74890000
H      -47.60540000     -34.49870000     -68.80580000
C      -44.10110000     -34.58580000     -68.38070000
C      -43.10560000     -34.53770000     -70.51030000
C      -42.00890000     -34.61170000     -69.68070000
S      -45.52740000     -34.49480000     -67.43810000
S      -42.43890000     -34.61460000     -67.93310000
H      -40.93370000     -34.69630000     -69.90070000
