40
Properties=species:S:1:pos:R:3 #=T CELL(abcABC):=T 1.889726e+02=T 90.00000=T Traj:=T positionsangstrom=T Step:=T 0=T Bead:=T pbc="F F F"
C      -47.29570000     -32.88100000     -72.45840000
C      -47.61310000     -34.14790000     -71.97690000
C      -47.67530000     -34.32400000     -70.57430000
C      -47.54550000     -33.24440000     -69.67740000
C      -47.38220000     -31.96910000     -70.20690000
C      -47.19050000     -31.79000000     -71.59940000
H      -47.22950000     -32.66420000     -73.52710000
H      -47.88980000     -35.32140000     -70.15510000
H      -47.10110000     -31.12130000     -69.57850000
H      -47.12920000     -30.79040000     -72.01580000
C      -47.45030000     -33.51360000     -68.13760000
H      -47.76580000     -34.54910000     -67.91790000
H      -48.13340000     -32.93910000     -67.51170000
C      -47.82430000     -35.30730000     -72.85490000
H      -47.80930000     -36.39760000     -72.51560000
H      -48.80680000     -35.15770000     -73.43780000
S      -45.76780000     -33.09310000     -67.50930000
S      -46.61750000     -35.33030000     -74.34020000
C      -44.79750000     -34.54590000     -67.98420000
H      -43.90600000     -34.57770000     -67.31910000
H      -45.45760000     -35.43390000     -67.68250000
C      -45.12400000     -36.22330000     -73.74490000
H      -44.46620000     -36.15200000     -74.60400000
H      -45.19720000     -37.27580000     -73.56920000
C      -44.31440000     -35.49490000     -72.57020000
H      -44.91990000     -35.72760000     -71.72850000
H      -43.39230000     -36.03490000     -72.40980000
C      -44.26970000     -34.58280000     -69.39470000
H      -45.10600000     -35.01990000     -69.98930000
H      -43.49480000     -35.35990000     -69.41830000
C      -43.68360000     -33.37900000     -70.16240000
C      -43.19390000     -32.26380000     -69.59810000
C      -43.83330000     -33.20320000     -71.60110000
H      -43.01330000     -32.03420000     -68.57670000
C      -43.50800000     -31.91720000     -71.98040000
C      -44.04850000     -34.05730000     -72.75270000
C      -44.06510000     -33.35010000     -73.93120000
S      -43.04030000     -30.84530000     -70.66250000
S      -43.52230000     -31.65220000     -73.70480000
H      -44.27680000     -33.76450000     -74.87150000
