40
Properties=species:S:1:pos:R:3 #=T CELL(abcABC):=T 1.889726e+02=T 90.00000=T Traj:=T positionsangstrom=T Step:=T 0=T Bead:=T pbc="F F F"
C      -45.66950000     -30.09730000     -72.72750000
C      -45.62420000     -31.06230000     -73.79520000
C      -46.70050000     -31.96290000     -73.95510000
C      -47.82430000     -31.85930000     -73.13810000
C      -47.88870000     -30.84370000     -72.12560000
C      -46.77690000     -29.98000000     -71.92370000
H      -44.85030000     -29.39380000     -72.80590000
H      -46.77750000     -32.79290000     -74.70500000
H      -48.72130000     -30.73940000     -71.35050000
H      -46.73870000     -29.24090000     -71.11190000
C      -48.98820000     -32.81730000     -73.27120000
H      -49.35310000     -32.73020000     -74.33000000
H      -49.86320000     -32.58300000     -72.63620000
C      -44.35400000     -31.25550000     -74.57660000
H      -44.64230000     -31.28320000     -75.63320000
H      -43.60400000     -30.52720000     -74.43130000
S      -48.37950000     -34.56830000     -73.11990000
S      -43.41560000     -32.94090000     -74.44370000
C      -47.81100000     -34.70880000     -71.34110000
H      -48.61350000     -34.24080000     -70.68960000
H      -47.85280000     -35.79220000     -71.09620000
C      -43.02130000     -32.84510000     -72.60820000
H      -43.78120000     -32.17610000     -72.11490000
H      -42.07800000     -32.29490000     -72.50560000
C      -43.06040000     -34.18940000     -71.88790000
H      -43.91770000     -34.76170000     -72.24700000
H      -42.19170000     -34.67960000     -72.36730000
C      -46.38840000     -34.20420000     -71.15250000
H      -46.41490000     -33.06780000     -71.35550000
H      -45.84560000     -34.65440000     -71.91710000
C      -45.70380000     -34.45520000     -69.83360000
C      -46.42140000     -34.74120000     -68.69690000
C      -44.25770000     -34.35920000     -69.57940000
H      -47.44350000     -34.98160000     -68.49770000
C      -44.01270000     -34.61200000     -68.23150000
C      -43.02800000     -34.23620000     -70.35950000
C      -41.89210000     -34.32960000     -69.57060000
S      -45.42860000     -34.89980000     -67.26660000
S      -42.29470000     -34.56410000     -67.83800000
H      -40.84040000     -34.32380000     -69.74110000
