40
Properties=species:S:1:pos:R:3 #=T CELL(abcABC):=T 1.889726e+02=T 90.00000=T Traj:=T positionsangstrom=T Step:=T 0=T Bead:=T pbc="F F F"
C      -49.24380000     -31.74360000     -72.96710000
C      -47.93050000     -31.56150000     -73.36150000
C      -47.08370000     -30.79560000     -72.47040000
C      -47.51420000     -30.33350000     -71.21110000
C      -48.92530000     -30.34650000     -70.96610000
C      -49.75490000     -31.14590000     -71.81840000
H      -49.88500000     -32.33450000     -73.49930000
H      -46.03430000     -30.68570000     -72.77360000
H      -49.25170000     -29.99690000     -70.00330000
H      -50.79340000     -31.32600000     -71.55660000
C      -46.51980000     -29.58950000     -70.33550000
H      -46.93030000     -29.46140000     -69.30320000
H      -46.46170000     -28.52890000     -70.61390000
C      -47.25900000     -32.24000000     -74.43350000
H      -47.66340000     -31.98660000     -75.49430000
H      -46.18020000     -31.99010000     -74.37830000
S      -44.75790000     -30.10370000     -70.45370000
S      -47.54070000     -34.04950000     -74.11680000
C      -44.56920000     -31.79750000     -69.76150000
H      -44.40870000     -31.66160000     -68.67240000
H      -45.46380000     -32.31550000     -69.99870000
C      -45.91260000     -34.61350000     -73.43820000
H      -45.10880000     -34.12880000     -73.99660000
H      -46.00300000     -35.69750000     -73.52340000
C      -45.69880000     -34.29500000     -71.93270000
H      -45.40910000     -33.31720000     -71.77240000
H      -46.64810000     -34.45520000     -71.44270000
C      -43.27580000     -32.32390000     -70.37480000
H      -42.57230000     -31.61820000     -70.02300000
H      -43.25380000     -32.33150000     -71.49230000
C      -42.88800000     -33.76490000     -70.02750000
C      -41.71450000     -34.10970000     -69.29140000
C      -43.51160000     -34.98510000     -70.56440000
H      -41.05260000     -33.33060000     -68.88880000
C      -42.90770000     -36.16340000     -69.97280000
C      -44.65370000     -35.28470000     -71.39840000
C      -44.93070000     -36.62400000     -71.44800000
S      -41.44810000     -35.81860000     -69.07750000
S      -43.78420000     -37.56610000     -70.45800000
H      -45.60410000     -37.14500000     -72.12300000
