40
Properties=species:S:1:pos:R:3 #=T CELL(abcABC):=T 1.889726e+02=T 90.00000=T Traj:=T positionsangstrom=T Step:=T 0=T Bead:=T pbc="F F F"
C      -43.47440000     -33.88770000     -68.58540000
C      -44.16990000     -32.77400000     -68.38880000
C      -43.81400000     -31.63280000     -69.08960000
C      -42.92690000     -31.66160000     -70.17250000
C      -42.14970000     -32.82830000     -70.22960000
C      -42.43190000     -33.97450000     -69.49370000
H      -43.61190000     -34.75830000     -67.84040000
H      -44.42290000     -30.75300000     -68.83070000
H      -41.31210000     -32.88450000     -70.94570000
H      -41.75350000     -34.82010000     -69.56190000
C      -42.69170000     -30.42070000     -70.96600000
H      -41.67140000     -30.06310000     -70.70150000
H      -43.33250000     -29.60110000     -70.60660000
C      -45.26370000     -32.81950000     -67.32910000
H      -45.24100000     -33.85720000     -66.95970000
H      -44.98830000     -32.16800000     -66.43430000
S      -42.76130000     -30.45290000     -72.87670000
S      -46.95420000     -32.22920000     -67.79960000
C      -43.42660000     -32.11040000     -73.43590000
H      -43.41830000     -32.07610000     -74.53280000
H      -42.72890000     -32.97850000     -73.12660000
C      -47.49510000     -33.43180000     -69.04410000
H      -48.56900000     -33.32170000     -69.07820000
H      -47.13520000     -34.39560000     -68.70570000
C      -46.88270000     -33.15820000     -70.44020000
H      -47.21700000     -32.19820000     -70.80210000
H      -45.80070000     -33.14040000     -70.25380000
C      -44.83930000     -32.38280000     -72.87520000
H      -45.44230000     -31.47550000     -73.11400000
H      -44.84400000     -32.44290000     -71.73670000
C      -45.48690000     -33.64080000     -73.39910000
C      -45.16480000     -34.22190000     -74.65300000
C      -46.47470000     -34.44620000     -72.67130000
H      -44.54520000     -33.89430000     -75.43860000
C      -46.92820000     -35.52490000     -73.40680000
C      -47.15470000     -34.31110000     -71.37200000
C      -48.07070000     -35.23740000     -71.11650000
S      -46.12210000     -35.70520000     -74.96910000
S      -48.23290000     -36.37840000     -72.51710000
H      -48.71810000     -35.28780000     -70.32470000
