40
Properties=species:S:1:pos:R:3 #=T CELL(abcABC):=T 1.889726e+02=T 90.00000=T Traj:=T positionsangstrom=T Step:=T 0=T Bead:=T pbc="F F F"
C      -44.79460000     -30.32740000     -73.22920000
C      -44.74370000     -31.55780000     -73.92730000
C      -45.95420000     -32.22550000     -74.04890000
C      -47.14320000     -31.72840000     -73.54840000
C      -47.18650000     -30.56480000     -72.79390000
C      -45.97200000     -29.86130000     -72.62050000
H      -43.87350000     -29.73180000     -73.08840000
H      -45.90270000     -33.29140000     -74.39790000
H      -48.18150000     -30.17500000     -72.51100000
H      -45.96660000     -29.03160000     -71.86580000
C      -48.36790000     -32.51170000     -73.91160000
H      -48.67000000     -32.34130000     -74.98660000
H      -49.17300000     -32.02100000     -73.32580000
C      -43.43460000     -32.15840000     -74.40710000
H      -43.46990000     -32.26200000     -75.50760000
H      -42.55570000     -31.42720000     -74.22600000
S      -48.09550000     -34.25560000     -73.62650000
S      -42.94310000     -33.88040000     -73.95430000
C      -47.97150000     -34.29640000     -71.71860000
H      -48.52580000     -33.43600000     -71.30510000
H      -48.41680000     -35.26940000     -71.43770000
C      -42.81030000     -33.57980000     -72.16850000
H      -43.51970000     -32.78620000     -71.97070000
H      -41.74700000     -33.28600000     -71.82400000
C      -43.14630000     -34.91070000     -71.28080000
H      -44.00560000     -35.33190000     -71.85680000
H      -42.40480000     -35.66510000     -71.27140000
C      -46.50250000     -34.28870000     -71.36090000
H      -46.09020000     -33.31980000     -71.73420000
H      -45.91580000     -35.04170000     -71.93480000
C      -46.16340000     -34.24970000     -69.89870000
C      -47.08190000     -34.21470000     -68.88970000
C      -44.78940000     -34.31790000     -69.35340000
H      -48.19470000     -34.22860000     -69.01590000
C      -44.81910000     -34.10000000     -67.98130000
C      -43.53640000     -34.53080000     -69.87920000
C      -42.48380000     -34.49680000     -68.94600000
S      -46.38360000     -34.03090000     -67.29450000
S      -43.21460000     -34.20900000     -67.29530000
H      -41.39010000     -34.38810000     -68.92960000
