40
Properties=species:S:1:pos:R:3 #=T CELL(abcABC):=T 1.889726e+02=T 90.00000=T Traj:=T positionsangstrom=T Step:=T 0=T Bead:=T pbc="F F F"
C      -44.58730000     -30.28370000     -73.27790000
C      -44.53600000     -31.40610000     -74.06040000
C      -45.74610000     -32.14090000     -74.32030000
C      -46.93170000     -31.79690000     -73.76360000
C      -46.97750000     -30.58680000     -73.02970000
C      -45.86990000     -29.80010000     -72.83310000
H      -43.69990000     -29.67820000     -73.14530000
H      -45.74390000     -32.96000000     -74.98010000
H      -47.90470000     -30.21950000     -72.55220000
H      -45.93450000     -28.93440000     -72.17370000
C      -48.21750000     -32.49760000     -73.87700000
H      -48.62260000     -32.42340000     -74.84590000
H      -48.93980000     -32.06640000     -73.20660000
C      -43.31150000     -32.05590000     -74.60430000
H      -43.23540000     -32.18510000     -75.67940000
H      -42.47290000     -31.43110000     -74.38940000
S      -48.25330000     -34.35280000     -73.48860000
S      -43.00110000     -33.83670000     -73.95750000
C      -47.86830000     -34.37290000     -71.71190000
H      -48.46500000     -33.56550000     -71.21930000
H      -48.32710000     -35.33370000     -71.36640000
C      -42.80430000     -33.48370000     -72.06410000
H      -43.50560000     -32.71140000     -71.71400000
H      -41.77960000     -33.19930000     -72.05160000
C      -43.19050000     -34.78110000     -71.31200000
H      -44.13030000     -35.24550000     -71.72410000
H      -42.37340000     -35.54150000     -71.35800000
C      -46.37370000     -34.37290000     -71.37880000
H      -45.84640000     -33.59730000     -71.90620000
H      -46.02530000     -35.30070000     -71.79260000
C      -46.19140000     -34.26430000     -69.89020000
C      -47.14830000     -34.17800000     -68.92580000
C      -44.82480000     -34.32570000     -69.27040000
H      -48.18450000     -34.02340000     -69.04150000
C      -44.94740000     -34.09930000     -67.90280000
C      -43.49200000     -34.50440000     -69.83400000
C      -42.65560000     -34.56710000     -68.74480000
S      -46.53560000     -34.08170000     -67.23800000
S      -43.34590000     -34.25230000     -67.15110000
H      -41.55920000     -34.72620000     -68.73430000
