40
Properties=species:S:1:pos:R:3 #=T CELL(abcABC):=T 1.889726e+02=T 90.00000=T Traj:=T positionsangstrom=T Step:=T 0=T Bead:=T pbc="F F F"
C      -44.72140000     -30.17750000     -73.98610000
C      -44.51440000     -31.58400000     -74.04400000
C      -45.61780000     -32.42820000     -74.05000000
C      -46.90590000     -31.86550000     -74.06170000
C      -47.05860000     -30.50800000     -73.78510000
C      -45.96610000     -29.60230000     -73.77960000
H      -43.89460000     -29.48060000     -73.83050000
H      -45.46310000     -33.45480000     -74.29080000
H      -48.11140000     -30.21480000     -73.72730000
H      -46.08370000     -28.48960000     -73.74990000
C      -48.17400000     -32.65270000     -74.22450000
H      -48.50610000     -32.87630000     -75.27070000
H      -48.96090000     -32.01510000     -73.79850000
C      -43.09880000     -31.99100000     -74.33430000
H      -42.94960000     -32.07470000     -75.50720000
H      -42.44130000     -31.20860000     -73.89560000
S      -48.20020000     -34.44600000     -73.50730000
S      -42.60410000     -33.59270000     -73.58540000
C      -47.95690000     -34.25330000     -71.66180000
H      -48.62590000     -33.46430000     -71.27700000
H      -48.33680000     -35.24440000     -71.28210000
C      -42.88910000     -33.24690000     -71.80800000
H      -43.70340000     -32.42460000     -71.81510000
H      -42.02410000     -32.85480000     -71.18630000
C      -43.29150000     -34.57120000     -71.18790000
H      -44.13040000     -34.91210000     -71.80640000
H      -42.54720000     -35.32980000     -71.36240000
C      -46.49030000     -34.05150000     -71.23980000
H      -46.09040000     -33.10560000     -71.69740000
H      -45.97990000     -34.90990000     -71.70890000
C      -46.25540000     -34.06100000     -69.78030000
C      -47.18140000     -33.87100000     -68.79500000
C      -44.97030000     -34.32740000     -69.20590000
H      -48.17190000     -33.43540000     -69.11240000
C      -44.97250000     -34.45250000     -67.78540000
C      -43.64820000     -34.53270000     -69.66420000
C      -42.65740000     -34.56840000     -68.67070000
S      -46.62720000     -34.19920000     -67.16010000
S      -43.41600000     -34.66940000     -67.03590000
H      -41.61270000     -34.64010000     -68.89950000
