40
Properties=species:S:1:pos:R:3 #=T CELL(abcABC):=T 1.889726e+02=T 90.00000=T Traj:=T positionsangstrom=T Step:=T 0=T Bead:=T pbc="F F F"
C      -44.67110000     -30.18690000     -73.36600000
C      -44.40580000     -31.42190000     -74.01820000
C      -45.49640000     -32.18920000     -74.34450000
C      -46.82530000     -31.86250000     -73.99120000
C      -47.05870000     -30.56430000     -73.49420000
C      -45.98010000     -29.69480000     -73.24370000
H      -43.82710000     -29.64420000     -72.96910000
H      -45.33430000     -33.22180000     -74.88180000
H      -48.10740000     -30.24000000     -73.47830000
H      -46.06930000     -28.75840000     -72.73700000
C      -47.99540000     -32.71170000     -74.35510000
H      -48.23910000     -32.83140000     -75.39350000
H      -48.89510000     -32.08980000     -74.05170000
C      -42.99630000     -31.91980000     -74.34180000
H      -42.75100000     -32.19800000     -75.39820000
H      -42.21320000     -31.21780000     -74.02210000
S      -48.06540000     -34.37890000     -73.66690000
S      -42.71490000     -33.62050000     -73.60580000
C      -47.90470000     -34.22030000     -71.82140000
H      -48.58850000     -33.46520000     -71.38360000
H      -48.30410000     -35.12230000     -71.35550000
C      -43.06450000     -33.32590000     -71.72920000
H      -44.05280000     -32.75680000     -71.64510000
H      -42.28020000     -32.74390000     -71.33630000
C      -43.09030000     -34.70070000     -71.17460000
H      -43.65780000     -35.34280000     -71.81760000
H      -42.09140000     -35.15540000     -71.07820000
C      -46.47620000     -33.95290000     -71.34780000
H      -46.16190000     -32.96020000     -71.68500000
H      -45.66780000     -34.52920000     -71.81570000
C      -46.29070000     -34.10580000     -69.82870000
C      -47.30680000     -33.89600000     -68.88050000
C      -45.05970000     -34.48140000     -69.21660000
H      -48.35100000     -33.77780000     -69.24480000
C      -45.07530000     -34.41630000     -67.77780000
C      -43.64970000     -34.69150000     -69.74180000
C      -42.78040000     -34.81380000     -68.67020000
S      -46.69210000     -34.10640000     -67.26060000
S      -43.50640000     -34.62720000     -67.06360000
H      -41.75080000     -34.73780000     -68.70510000
