40
Properties=species:S:1:pos:R:3 #=T CELL(abcABC):=T 1.889726e+02=T 90.00000=T Traj:=T positionsangstrom=T Step:=T 0=T Bead:=T pbc="F F F"
C      -47.63160000     -31.79740000     -71.78200000
C      -47.96140000     -33.17770000     -71.74630000
C      -47.67900000     -33.83210000     -70.54220000
C      -47.14680000     -33.14900000     -69.40780000
C      -46.81370000     -31.75500000     -69.48220000
C      -47.03790000     -31.14820000     -70.69730000
H      -47.86290000     -31.24310000     -72.70440000
H      -47.98800000     -34.89190000     -70.34830000
H      -46.05870000     -31.42270000     -68.80260000
H      -46.62320000     -30.17140000     -70.98450000
C      -46.90910000     -33.96710000     -68.12970000
H      -47.05840000     -35.04530000     -68.33650000
H      -47.59910000     -33.62770000     -67.34660000
C      -48.50910000     -33.95920000     -72.92350000
H      -48.81450000     -35.00580000     -72.74000000
H      -49.44640000     -33.45530000     -73.20330000
S      -45.24400000     -33.82400000     -67.29420000
S      -47.44900000     -33.96710000     -74.42920000
C      -44.29410000     -35.09760000     -68.09260000
H      -43.29750000     -34.95430000     -67.60050000
H      -44.64690000     -36.11840000     -67.89530000
C      -46.36580000     -35.43900000     -74.21000000
H      -45.77970000     -35.55930000     -75.14860000
H      -47.04280000     -36.30570000     -74.17640000
C      -45.53700000     -35.40040000     -72.97410000
H      -46.04860000     -35.34040000     -72.06010000
H      -44.95390000     -36.29170000     -72.93080000
C      -44.38980000     -34.99920000     -69.66370000
H      -45.43390000     -34.97840000     -69.89780000
H      -44.03370000     -35.99220000     -70.09230000
C      -43.83430000     -33.76750000     -70.34290000
C      -43.09670000     -32.78680000     -69.71060000
C      -43.89150000     -33.61480000     -71.77280000
H      -42.93810000     -32.90970000     -68.68420000
C      -43.04920000     -32.52720000     -72.16610000
C      -44.53290000     -34.23990000     -72.90810000
C      -44.05630000     -33.64140000     -74.04860000
S      -42.38470000     -31.58470000     -70.81040000
S      -43.00040000     -32.34970000     -73.87200000
H      -44.24480000     -33.99320000     -75.07790000
