40
Properties=species:S:1:pos:R:3 #=T CELL(abcABC):=T 1.889726e+02=T 90.00000=T Traj:=T positionsangstrom=T Step:=T 0=T Bead:=T pbc="F F F"
C      -44.68280000     -30.10940000     -73.69300000
C      -44.48300000     -31.41800000     -74.15300000
C      -45.60400000     -32.26860000     -74.27500000
C      -46.90440000     -31.78210000     -74.05090000
C      -47.05290000     -30.39870000     -73.82830000
C      -45.90540000     -29.58000000     -73.51590000
H      -43.74560000     -29.57920000     -73.57390000
H      -45.57090000     -33.30700000     -74.45200000
H      -48.01620000     -29.94630000     -73.73670000
H      -46.01420000     -28.47380000     -73.19620000
C      -48.10640000     -32.64350000     -74.24670000
H      -48.22790000     -32.98220000     -75.30950000
H      -49.02820000     -32.31200000     -73.86390000
C      -43.11400000     -31.93730000     -74.46030000
H      -43.08930000     -32.00580000     -75.51420000
H      -42.43430000     -31.23720000     -73.99920000
S      -47.89650000     -34.34850000     -73.52420000
S      -42.78280000     -33.58080000     -73.63910000
C      -47.91580000     -34.13130000     -71.68640000
H      -48.58860000     -33.22120000     -71.50470000
H      -48.36450000     -35.03940000     -71.19320000
C      -42.95790000     -33.24790000     -71.74180000
H      -43.82610000     -32.65490000     -71.57240000
H      -42.03350000     -32.89520000     -71.32610000
C      -43.23030000     -34.66730000     -71.18430000
H      -44.03340000     -35.18280000     -71.76460000
H      -42.32310000     -35.26970000     -71.14230000
C      -46.48790000     -34.01150000     -71.21280000
H      -46.10760000     -33.09680000     -71.62670000
H      -46.00140000     -34.83790000     -71.63680000
C      -46.28610000     -34.11720000     -69.76580000
C      -47.31260000     -34.00890000     -68.80510000
C      -45.03000000     -34.43000000     -69.15040000
H      -48.29870000     -33.65700000     -68.92300000
C      -45.03780000     -34.39040000     -67.76080000
C      -43.70700000     -34.76510000     -69.70360000
C      -42.86310000     -35.14010000     -68.71520000
S      -46.58730000     -34.01260000     -67.17020000
S      -43.46870000     -34.82160000     -67.03250000
H      -41.78400000     -35.41400000     -68.79220000
