40
Properties=species:S:1:pos:R:3 #=T CELL(abcABC):=T 1.889726e+02=T 90.00000=T Traj:=T positionsangstrom=T Step:=T 0=T Bead:=T pbc="F F F"
C      -45.46940000     -30.39580000     -73.78540000
C      -44.63160000     -31.43110000     -74.18100000
C      -45.14140000     -32.66750000     -74.57680000
C      -46.53490000     -32.91340000     -74.48300000
C      -47.36420000     -31.93400000     -73.92720000
C      -46.82240000     -30.65480000     -73.73420000
H      -45.10110000     -29.41340000     -73.58370000
H      -44.52070000     -33.41700000     -74.92910000
H      -48.40040000     -32.04340000     -73.68260000
H      -47.40250000     -29.80410000     -73.42740000
C      -47.27090000     -34.23720000     -74.77840000
H      -47.01690000     -34.74970000     -75.70320000
H      -48.36000000     -34.07380000     -74.91260000
C      -43.17720000     -31.06300000     -74.14380000
H      -42.66800000     -30.93080000     -75.17420000
H      -43.09930000     -30.01150000     -73.67980000
S      -46.99180000     -35.66890000     -73.61720000
S      -42.23460000     -32.32500000     -73.10300000
C      -47.64620000     -34.96450000     -72.05100000
H      -48.64830000     -34.51810000     -72.04250000
H      -47.77980000     -35.81890000     -71.29780000
C      -43.27560000     -32.41990000     -71.58230000
H      -44.31960000     -32.22730000     -71.95170000
H      -42.84570000     -31.64320000     -70.90880000
C      -43.10750000     -33.81290000     -70.85200000
H      -43.57290000     -34.61960000     -71.46810000
H      -42.08170000     -33.89190000     -70.72530000
C      -46.61550000     -33.98000000     -71.39670000
H      -46.82690000     -32.94140000     -71.74010000
H      -45.68370000     -34.21000000     -71.85980000
C      -46.45280000     -34.03490000     -69.85990000
C      -47.55640000     -34.23980000     -68.99810000
C      -45.18340000     -33.96340000     -69.13480000
H      -48.62920000     -34.33480000     -69.29800000
C      -45.33950000     -34.14100000     -67.80200000
C      -43.75000000     -33.78860000     -69.48760000
C      -42.99390000     -33.81950000     -68.31190000
S      -47.00810000     -34.30060000     -67.34240000
S      -43.83910000     -33.89710000     -66.83260000
H      -41.90700000     -33.80910000     -68.17880000
