40
Properties=species:S:1:pos:R:3 #=T CELL(abcABC):=T 1.889726e+02=T 90.00000=T Traj:=T positionsangstrom=T Step:=T 0=T Bead:=T pbc="F F F"
C      -45.38180000     -30.31240000     -73.62230000
C      -44.69510000     -31.42110000     -74.04110000
C      -45.44270000     -32.55060000     -74.40620000
C      -46.81640000     -32.61920000     -74.22850000
C      -47.48850000     -31.50200000     -73.67590000
C      -46.75990000     -30.29900000     -73.44430000
H      -44.85000000     -29.41600000     -73.39510000
H      -44.98950000     -33.30420000     -74.88780000
H      -48.59720000     -31.44400000     -73.64470000
H      -47.26150000     -29.41920000     -73.08780000
C      -47.63080000     -33.80320000     -74.65440000
H      -47.48680000     -33.94390000     -75.68750000
H      -48.64790000     -33.44660000     -74.58710000
C      -43.22310000     -31.35680000     -74.13180000
H      -42.90440000     -31.35920000     -75.20660000
H      -42.99710000     -30.43620000     -73.65480000
S      -47.44560000     -35.46160000     -73.77650000
S      -42.42320000     -32.84240000     -73.30440000
C      -47.58270000     -34.89100000     -71.99620000
H      -48.17350000     -33.90000000     -72.02920000
H      -48.18410000     -35.52670000     -71.46060000
C      -43.10590000     -32.71280000     -71.61200000
H      -44.20000000     -32.73200000     -71.63610000
H      -42.64230000     -31.98090000     -70.98440000
C      -42.82930000     -34.03190000     -70.81930000
H      -43.18320000     -34.83070000     -71.39940000
H      -41.75910000     -34.22490000     -70.65550000
C      -46.17340000     -34.57990000     -71.40790000
H      -45.78950000     -33.73060000     -71.92980000
H      -45.51840000     -35.43480000     -71.67650000
C      -46.16440000     -34.27680000     -69.93700000
C      -47.26440000     -34.38950000     -69.14180000
C      -44.92140000     -34.06190000     -69.18220000
H      -48.28030000     -34.75710000     -69.37680000
C      -45.22760000     -33.92670000     -67.85130000
C      -43.50640000     -33.89620000     -69.44640000
C      -42.80950000     -33.81520000     -68.23560000
S      -46.91800000     -34.08750000     -67.46290000
S      -43.82700000     -33.77410000     -66.86200000
H      -41.81250000     -33.57480000     -67.93640000
