40
Properties=species:S:1:pos:R:3 #=T CELL(abcABC):=T 1.889726e+02=T 90.00000=T Traj:=T positionsangstrom=T Step:=T 0=T Bead:=T pbc="F F F"
C      -47.12010000     -33.21750000     -73.81330000
C      -45.75550000     -33.34890000     -74.14660000
C      -44.92150000     -32.23390000     -74.04090000
C      -45.40980000     -31.05880000     -73.46660000
C      -46.75920000     -30.95160000     -73.02780000
C      -47.63300000     -32.03330000     -73.32550000
H      -47.80410000     -34.03220000     -73.93720000
H      -43.87500000     -32.37430000     -74.13470000
H      -47.11090000     -29.93190000     -72.65830000
H      -48.62210000     -31.97920000     -72.94490000
C      -44.45760000     -29.88530000     -73.03350000
H      -44.86600000     -28.91490000     -73.36650000
H      -43.38130000     -29.93360000     -73.36970000
C      -45.23580000     -34.65380000     -74.71250000
H      -45.67130000     -34.77830000     -75.72940000
H      -44.18080000     -34.66190000     -74.87720000
S      -44.43720000     -29.62430000     -71.15810000
S      -45.85300000     -36.03110000     -73.56410000
C      -43.06770000     -30.82980000     -70.80220000
H      -42.35340000     -30.72770000     -71.60460000
H      -42.72320000     -30.63790000     -69.84910000
C      -44.33670000     -36.55400000     -72.70850000
H      -43.51780000     -36.69610000     -73.41710000
H      -44.61160000     -37.50970000     -72.33830000
C      -43.82860000     -35.67930000     -71.59050000
H      -42.91420000     -36.26810000     -71.27380000
H      -43.43990000     -34.71700000     -72.02840000
C      -43.51590000     -32.36500000     -70.91330000
H      -42.54180000     -32.91580000     -70.83670000
H      -43.92190000     -32.51610000     -71.90500000
C      -44.41790000     -32.82130000     -69.81290000
C      -45.01720000     -32.06210000     -68.85260000
C      -44.96190000     -34.19730000     -69.75610000
H      -45.01440000     -30.97070000     -68.76570000
C      -45.81390000     -34.37750000     -68.67640000
C      -44.72190000     -35.52280000     -70.37920000
C      -45.39560000     -36.54590000     -69.81970000
S      -46.08030000     -32.93840000     -67.75620000
S      -46.47820000     -35.99750000     -68.54020000
H      -45.08330000     -37.60680000     -70.07510000
