40
Properties=species:S:1:pos:R:3 #=T CELL(abcABC):=T 1.889726e+02=T 90.00000=T Traj:=T positionsangstrom=T Step:=T 0=T Bead:=T pbc="F F F"
C      -45.64040000     -30.43650000     -73.58530000
C      -44.77410000     -31.51680000     -73.87940000
C      -45.29480000     -32.77550000     -74.29980000
C      -46.68680000     -32.98800000     -74.43000000
C      -47.57150000     -31.85860000     -74.27120000
C      -47.00400000     -30.61890000     -73.79460000
H      -45.36190000     -29.38850000     -73.46810000
H      -44.59070000     -33.46820000     -74.47470000
H      -48.57860000     -31.90950000     -74.60980000
H      -47.66950000     -29.75530000     -73.52680000
C      -47.08240000     -34.31290000     -75.02010000
H      -46.48910000     -34.61390000     -75.96310000
H      -48.12780000     -34.30950000     -75.32990000
C      -43.30530000     -31.23610000     -74.09300000
H      -43.08620000     -31.57530000     -75.02900000
H      -43.06450000     -30.19760000     -73.89260000
S      -46.79440000     -35.61760000     -73.72020000
S      -42.25780000     -32.25920000     -73.02940000
C      -47.40880000     -35.04030000     -72.04200000
H      -48.43610000     -34.68850000     -72.12390000
H      -47.36460000     -35.99290000     -71.55330000
C      -43.12670000     -32.31270000     -71.33180000
H      -44.14410000     -31.98520000     -71.47260000
H      -42.73010000     -31.59130000     -70.62790000
C      -43.19160000     -33.77930000     -70.87470000
H      -43.72540000     -34.38180000     -71.62780000
H      -42.18450000     -34.26360000     -70.78230000
C      -46.47210000     -34.08150000     -71.37580000
H      -46.92970000     -33.11180000     -71.57540000
H      -45.45170000     -33.98230000     -71.81080000
C      -46.41630000     -34.19630000     -69.87290000
C      -47.52990000     -34.36990000     -69.01660000
C      -45.20310000     -34.00210000     -69.12540000
H      -48.55730000     -34.33270000     -69.31920000
C      -45.36970000     -33.97700000     -67.74320000
C      -43.80360000     -33.90950000     -69.53660000
C      -42.93720000     -33.78580000     -68.46730000
S      -47.02090000     -34.22710000     -67.34610000
S      -43.83490000     -33.78940000     -66.88780000
H      -41.85260000     -33.62090000     -68.45010000
