40
Properties=species:S:1:pos:R:3 #=T CELL(abcABC):=T 1.889726e+02=T 90.00000=T Traj:=T positionsangstrom=T Step:=T 0=T Bead:=T pbc="F F F"
C      -46.20370000     -30.50730000     -72.92440000
C      -45.36970000     -31.25960000     -73.68800000
C      -45.86300000     -32.48540000     -74.16600000
C      -47.12220000     -32.98070000     -73.82300000
C      -47.91980000     -32.18150000     -73.03420000
C      -47.46500000     -30.95700000     -72.56180000
H      -45.91450000     -29.51530000     -72.50620000
H      -45.25980000     -33.10280000     -74.74000000
H      -48.90930000     -32.57160000     -72.74110000
H      -48.05520000     -30.34300000     -71.81080000
C      -47.71410000     -34.35880000     -74.15610000
H      -47.83890000     -34.24500000     -75.24830000
H      -48.73700000     -34.40790000     -73.64430000
C      -43.95060000     -31.03720000     -74.24330000
H      -44.01230000     -31.03270000     -75.29710000
H      -43.67280000     -30.01680000     -73.99300000
S      -46.64460000     -35.79900000     -74.00690000
S      -42.64930000     -32.15690000     -73.55780000
C      -46.55390000     -36.02780000     -72.16500000
H      -47.59860000     -36.04280000     -71.76630000
H      -46.14140000     -37.07520000     -71.90840000
C      -42.78680000     -32.02640000     -71.72800000
H      -43.66900000     -31.47880000     -71.53740000
H      -41.96800000     -31.28810000     -71.46330000
C      -42.75410000     -33.36610000     -70.96740000
H      -43.13820000     -34.17110000     -71.64350000
H      -41.68240000     -33.60760000     -70.89260000
C      -45.72570000     -34.85010000     -71.55550000
H      -45.93150000     -33.82460000     -72.10900000
H      -44.66580000     -35.03040000     -71.83900000
C      -45.75890000     -34.74170000     -70.07190000
C      -46.81240000     -35.17030000     -69.30790000
C      -44.82140000     -34.00180000     -69.34720000
H      -47.63690000     -35.76530000     -69.64480000
C      -45.21110000     -33.79450000     -68.01730000
C      -43.52230000     -33.38200000     -69.61480000
C      -43.00000000     -32.81430000     -68.45450000
S      -46.71480000     -34.61280000     -67.61430000
S      -44.04310000     -32.96100000     -67.04770000
H      -42.08200000     -32.34430000     -68.26330000
