40
Properties=species:S:1:pos:R:3 #=T CELL(abcABC):=T 1.889726e+02=T 90.00000=T Traj:=T positionsangstrom=T Step:=T 0=T Bead:=T pbc="F F F"
C      -46.05450000     -30.64740000     -73.06650000
C      -45.30570000     -31.43730000     -73.97090000
C      -45.93960000     -32.58430000     -74.46560000
C      -47.22490000     -32.93680000     -74.13230000
C      -48.00800000     -32.00460000     -73.38120000
C      -47.40350000     -30.90970000     -72.80590000
H      -45.67940000     -29.66780000     -72.80700000
H      -45.37420000     -33.26320000     -75.12010000
H      -49.04760000     -32.29350000     -73.16640000
H      -48.10710000     -30.32640000     -72.25360000
C      -47.76940000     -34.22450000     -74.63860000
H      -47.72500000     -34.28970000     -75.74680000
H      -48.85070000     -34.50990000     -74.47180000
C      -43.91690000     -30.88950000     -74.29170000
H      -43.62740000     -31.04880000     -75.31690000
H      -43.84560000     -29.85820000     -74.06040000
S      -46.76980000     -35.80650000     -74.02640000
S      -42.63090000     -31.91810000     -73.41300000
C      -46.86300000     -35.56420000     -72.18630000
H      -47.75840000     -34.90580000     -71.87170000
H      -47.06160000     -36.56050000     -71.73790000
C      -43.29470000     -31.93220000     -71.65160000
H      -44.43990000     -31.96410000     -71.72450000
H      -43.11580000     -31.03000000     -71.12200000
C      -42.89110000     -33.15700000     -70.82760000
H      -43.06290000     -34.01390000     -71.34790000
H      -41.79190000     -33.09750000     -70.74420000
C      -45.61000000     -34.97210000     -71.44680000
H      -45.50000000     -34.06980000     -71.91160000
H      -44.74790000     -35.55570000     -71.80310000
C      -45.72120000     -34.85990000     -69.98140000
C      -46.67560000     -35.42710000     -69.14700000
C      -44.77350000     -34.04870000     -69.19860000
H      -47.47130000     -36.14490000     -69.35000000
C      -45.03560000     -34.03250000     -67.82860000
C      -43.52750000     -33.25700000     -69.49140000
C      -42.96040000     -32.69010000     -68.35140000
S      -46.49880000     -34.91740000     -67.46080000
S      -43.92290000     -33.06200000     -66.88010000
H      -41.99250000     -32.09720000     -68.33500000
