40
Properties=species:S:1:pos:R:3 #=T CELL(abcABC):=T 1.889726e+02=T 90.00000=T Traj:=T positionsangstrom=T Step:=T 0=T Bead:=T pbc="F F F"
C      -47.44110000     -30.49000000     -72.85650000
C      -47.14330000     -31.49030000     -71.95740000
C      -46.47370000     -32.68970000     -72.43070000
C      -46.09120000     -32.85950000     -73.75690000
C      -46.45850000     -31.80140000     -74.62810000
C      -47.02250000     -30.58370000     -74.18830000
H      -47.93530000     -29.59250000     -72.45970000
H      -46.27000000     -33.49270000     -71.67620000
H      -46.05950000     -31.83430000     -75.65690000
H      -47.29090000     -29.75250000     -74.91440000
C      -45.42150000     -34.17330000     -74.21350000
H      -45.95430000     -34.54580000     -75.07660000
H      -45.60970000     -34.98620000     -73.42900000
C      -47.45280000     -31.26130000     -70.44710000
H      -48.33520000     -30.57650000     -70.27440000
H      -47.65220000     -32.19740000     -69.83390000
S      -43.62580000     -33.87330000     -74.44370000
S      -46.12960000     -30.31840000     -69.47150000
C      -43.14940000     -33.24810000     -72.70800000
H      -42.49940000     -32.39070000     -72.81860000
H      -44.07150000     -32.90980000     -72.23490000
C      -44.53170000     -30.89670000     -70.20380000
H      -43.94930000     -30.01480000     -70.01580000
H      -44.66610000     -31.20490000     -71.29750000
C      -43.82160000     -32.07770000     -69.45450000
H      -42.96100000     -32.19450000     -70.11260000
H      -43.54640000     -31.78240000     -68.47280000
C      -42.50860000     -34.29750000     -71.82150000
H      -41.84040000     -33.77380000     -71.09770000
H      -41.81220000     -35.05840000     -72.21430000
C      -43.59160000     -35.09200000     -71.08160000
C      -43.92050000     -36.39160000     -71.45710000
C      -44.51420000     -34.61730000     -70.04320000
H      -43.46390000     -36.84500000     -72.36780000
C      -45.38520000     -35.66730000     -69.62470000
C      -44.62940000     -33.37230000     -69.27250000
C      -45.65060000     -33.48310000     -68.37190000
S      -45.26510000     -37.10960000     -70.63160000
S      -46.49740000     -35.08640000     -68.46190000
H      -46.24440000     -32.69070000     -67.81060000
