40
Properties=species:S:1:pos:R:3 #=T CELL(abcABC):=T 1.889726e+02=T 90.00000=T Traj:=T positionsangstrom=T Step:=T 0=T Bead:=T pbc="F F F"
C      -43.74230000     -33.86100000     -68.21330000
C      -43.48350000     -34.83130000     -69.17340000
C      -42.57990000     -34.50820000     -70.22200000
C      -42.14950000     -33.13760000     -70.35050000
C      -42.47520000     -32.14310000     -69.42220000
C      -43.30340000     -32.54480000     -68.31310000
H      -44.42440000     -34.15900000     -67.45420000
H      -42.25550000     -35.16000000     -71.02180000
H      -42.13860000     -31.10370000     -69.60520000
H      -43.52800000     -31.73860000     -67.57820000
C      -41.30980000     -32.73810000     -71.52270000
H      -40.28150000     -33.10660000     -71.55650000
H      -41.19000000     -31.66460000     -71.60860000
C      -43.99490000     -36.21270000     -68.93860000
H      -43.47940000     -36.80830000     -69.63050000
H      -43.84080000     -36.60340000     -67.97610000
S      -42.14410000     -33.15490000     -73.10400000
S      -45.84590000     -36.26730000     -69.08140000
C      -43.81050000     -32.40260000     -72.89960000
H      -44.16090000     -32.61320000     -71.86910000
H      -43.73160000     -31.31680000     -72.94670000
C      -46.24620000     -36.32580000     -70.88130000
H      -47.33300000     -36.51510000     -70.89240000
H      -45.76510000     -37.21610000     -71.18040000
C      -45.95310000     -35.13800000     -71.78410000
H      -44.97190000     -34.62220000     -71.43330000
H      -45.76880000     -35.53500000     -72.77960000
C      -44.82750000     -32.85830000     -73.93590000
H      -44.90860000     -33.93250000     -73.95470000
H      -44.60380000     -32.48090000     -74.89360000
C      -46.11370000     -32.23480000     -73.50650000
C      -46.47600000     -30.93880000     -73.83240000
C      -46.99160000     -32.81520000     -72.49000000
H      -45.86710000     -30.33300000     -74.51950000
C      -48.03610000     -31.95410000     -72.24700000
C      -47.02790000     -34.03800000     -71.79120000
C      -48.19100000     -34.10760000     -71.00170000
S      -47.93390000     -30.40620000     -73.02920000
S      -49.19180000     -32.69640000     -71.11200000
H      -48.67690000     -34.95330000     -70.54080000
