40
Properties=species:S:1:pos:R:3 #=T CELL(abcABC):=T 1.889726e+02=T 90.00000=T Traj:=T positionsangstrom=T Step:=T 0=T Bead:=T pbc="F F F"
C      -43.35570000     -34.29470000     -68.17810000
C      -43.53040000     -35.28450000     -69.21720000
C      -42.79440000     -35.14050000     -70.41380000
C      -41.99970000     -33.92110000     -70.59210000
C      -41.79540000     -33.03280000     -69.54080000
C      -42.52320000     -33.21480000     -68.36350000
H      -43.89730000     -34.48500000     -67.22680000
H      -42.89810000     -35.94580000     -71.12660000
H      -41.28040000     -32.08490000     -69.76140000
H      -42.48110000     -32.39880000     -67.65170000
C      -41.32130000     -33.85200000     -71.96410000
H      -41.19710000     -34.93700000     -72.34540000
H      -40.28050000     -33.47230000     -71.84370000
C      -44.50070000     -36.43350000     -69.03500000
H      -44.10940000     -37.33290000     -69.62570000
H      -44.58170000     -36.77740000     -68.00040000
S      -42.16710000     -32.95610000     -73.24470000
S      -46.21330000     -35.97030000     -69.66760000
C      -43.61630000     -32.29550000     -72.59410000
H      -43.94590000     -32.81120000     -71.70170000
H      -43.52490000     -31.25060000     -72.27750000
C      -46.16410000     -36.31480000     -71.43350000
H      -46.93240000     -36.99420000     -71.78250000
H      -45.20050000     -36.76440000     -71.72890000
C      -46.14480000     -34.96120000     -72.26500000
H      -45.17310000     -34.56620000     -72.10410000
H      -46.24420000     -35.23300000     -73.39320000
C      -44.82410000     -32.17610000     -73.65890000
H      -45.02720000     -33.05870000     -74.14430000
H      -44.48520000     -31.51930000     -74.44600000
C      -46.03660000     -31.64210000     -72.98700000
C      -46.44280000     -30.37400000     -73.17970000
C      -46.96240000     -32.45080000     -72.14860000
H      -45.93970000     -29.58980000     -73.70620000
C      -48.10050000     -31.65980000     -71.81740000
C      -47.13540000     -33.85450000     -71.86600000
C      -48.34680000     -34.13130000     -71.30250000
S      -47.88930000     -29.99500000     -72.28940000
S      -49.29470000     -32.62500000     -71.04050000
H      -48.77240000     -35.02860000     -70.88020000
