40
Properties=species:S:1:pos:R:3 #=T CELL(abcABC):=T 1.889726e+02=T 90.00000=T Traj:=T positionsangstrom=T Step:=T 0=T Bead:=T pbc="F F F"
C      -47.44390000     -33.02580000     -72.80400000
C      -47.45370000     -34.43540000     -72.57480000
C      -47.35530000     -34.87380000     -71.25560000
C      -47.31970000     -33.95780000     -70.20520000
C      -47.42240000     -32.60680000     -70.47040000
C      -47.43880000     -32.16450000     -71.77030000
H      -47.50400000     -32.60220000     -73.81980000
H      -47.33320000     -35.96980000     -70.99190000
H      -47.39530000     -31.90970000     -69.60660000
H      -47.68250000     -31.16550000     -71.97290000
C      -47.45430000     -34.53230000     -68.81900000
H      -47.31290000     -35.56280000     -68.78830000
H      -48.51540000     -34.39150000     -68.54540000
C      -47.35930000     -35.37520000     -73.76390000
H      -47.20300000     -36.41020000     -73.41040000
H      -48.15140000     -35.26920000     -74.54380000
S      -46.29130000     -33.90290000     -67.54290000
S      -45.89650000     -34.97380000     -74.82530000
C      -44.59240000     -34.64120000     -67.88950000
H      -43.82270000     -33.94080000     -67.40710000
H      -44.50040000     -35.64380000     -67.41160000
C      -44.39260000     -35.57140000     -73.89590000
H      -43.58080000     -35.37440000     -74.57270000
H      -44.53680000     -36.68460000     -73.92640000
C      -44.31950000     -35.03430000     -72.45600000
H      -45.24880000     -35.31960000     -71.93530000
H      -43.52630000     -35.61210000     -71.96430000
C      -44.18650000     -34.62950000     -69.35530000
H      -44.85640000     -35.09380000     -69.97630000
H      -43.30610000     -35.23500000     -69.45130000
C      -43.95640000     -33.21350000     -69.80980000
C      -43.78700000     -32.10970000     -69.03170000
C      -43.94920000     -32.83260000     -71.23390000
H      -43.43220000     -31.99200000     -67.99140000
C      -43.73220000     -31.51530000     -71.45110000
C      -44.09150000     -33.54620000     -72.43190000
C      -43.84640000     -32.83100000     -73.58000000
S      -43.49630000     -30.65800000     -70.00090000
S      -43.63560000     -31.09460000     -73.12280000
H      -43.86460000     -33.05440000     -74.59700000
