40
Properties=species:S:1:pos:R:3 #=T CELL(abcABC):=T 1.889726e+02=T 90.00000=T Traj:=T positionsangstrom=T Step:=T 0=T Bead:=T pbc="F F F"
C      -42.95290000     -35.63470000     -68.76230000
C      -43.68840000     -36.12020000     -69.91880000
C      -43.22260000     -35.72300000     -71.13560000
C      -42.20570000     -34.73870000     -71.25930000
C      -41.59000000     -34.21940000     -70.14860000
C      -41.95390000     -34.68900000     -68.86540000
H      -43.29170000     -35.91830000     -67.74160000
H      -43.68810000     -36.02930000     -72.00850000
H      -40.84410000     -33.40110000     -70.22240000
H      -41.39610000     -34.23570000     -67.99010000
C      -41.77590000     -34.31290000     -72.65680000
H      -42.36710000     -34.80850000     -73.33920000
H      -40.66420000     -34.64480000     -72.73280000
C      -44.93580000     -36.99080000     -69.64630000
H      -45.05060000     -37.83590000     -70.31990000
H      -44.80370000     -37.34910000     -68.59660000
S      -41.90440000     -32.45120000     -73.01540000
S      -46.44610000     -35.99530000     -69.79610000
C      -43.55600000     -31.91910000     -72.39970000
H      -43.77050000     -32.50160000     -71.53460000
H      -43.36250000     -30.85530000     -72.15930000
C      -46.67670000     -36.01040000     -71.59550000
H      -47.62760000     -36.46460000     -71.99240000
H      -45.93450000     -36.71390000     -72.03640000
C      -46.51550000     -34.60330000     -72.15250000
H      -45.46850000     -34.39710000     -72.06510000
H      -46.63110000     -34.63350000     -73.29360000
C      -44.69120000     -32.03320000     -73.37120000
H      -44.99380000     -33.10090000     -73.54080000
H      -44.34710000     -31.70070000     -74.36340000
C      -45.91290000     -31.37120000     -72.72540000
C      -46.12260000     -30.01060000     -72.62290000
C      -47.02080000     -32.07090000     -72.04150000
H      -45.37220000     -29.23580000     -72.92190000
C      -47.92220000     -31.24300000     -71.42610000
C      -47.30420000     -33.46680000     -71.69520000
C      -48.31460000     -33.54540000     -70.75830000
S      -47.67440000     -29.55610000     -71.87780000
S      -49.18060000     -32.04220000     -70.46450000
H      -48.63140000     -34.48110000     -70.24650000
