40
Properties=species:S:1:pos:R:3 #=T CELL(abcABC):=T 1.889726e+02=T 90.00000=T Traj:=T positionsangstrom=T Step:=T 0=T Bead:=T pbc="F F F"
C      -46.77970000     -30.14040000     -74.13540000
C      -45.64480000     -31.02310000     -74.18610000
C      -45.89920000     -32.40880000     -74.31750000
C      -47.18680000     -32.92430000     -74.59360000
C      -48.27060000     -31.98500000     -74.56000000
C      -48.04880000     -30.68120000     -74.39350000
H      -46.63770000     -29.05060000     -74.06860000
H      -45.07720000     -33.02070000     -74.47430000
H      -49.24960000     -32.30960000     -74.95950000
H      -48.89570000     -30.05120000     -74.44110000
C      -47.34230000     -34.44500000     -74.94430000
H      -46.75490000     -34.62810000     -75.80050000
H      -48.38590000     -34.65230000     -75.11320000
C      -44.20190000     -30.45450000     -74.07520000
H      -43.73260000     -30.39900000     -75.03960000
H      -44.23670000     -29.43580000     -73.63180000
S      -46.58430000     -35.51050000     -73.65570000
S      -42.93770000     -31.46050000     -73.08220000
C      -46.79140000     -34.67230000     -71.95000000
H      -46.34540000     -33.72750000     -72.03710000
H      -47.81800000     -34.58930000     -71.65260000
C      -43.87400000     -31.96190000     -71.56710000
H      -44.91420000     -31.94290000     -71.79720000
H      -43.79360000     -31.19510000     -70.74300000
C      -43.34860000     -33.31090000     -71.04440000
H      -43.70600000     -34.18780000     -71.63700000
H      -42.21480000     -33.36000000     -71.06540000
C      -46.03350000     -35.63850000     -70.98630000
H      -45.03680000     -35.91470000     -71.47120000
H      -46.60670000     -36.52000000     -70.91880000
C      -45.74450000     -35.20430000     -69.58330000
C      -46.40430000     -35.85840000     -68.50410000
C      -44.67980000     -34.34630000     -69.03580000
H      -47.28470000     -36.53440000     -68.57620000
C      -44.66110000     -34.32060000     -67.65020000
C      -43.64660000     -33.57560000     -69.55160000
C      -42.85860000     -32.97260000     -68.58010000
S      -45.80550000     -35.40120000     -66.90130000
S      -43.47730000     -33.21660000     -66.99260000
H      -41.79030000     -32.68610000     -68.69290000
