40
Properties=species:S:1:pos:R:3 #=T CELL(abcABC):=T 1.889726e+02=T 90.00000=T Traj:=T positionsangstrom=T Step:=T 0=T Bead:=T pbc="F F F"
C      -43.03510000     -35.17760000     -68.67870000
C      -43.65710000     -35.79640000     -69.73430000
C      -43.19730000     -35.51340000     -71.04450000
C      -42.15520000     -34.63600000     -71.26940000
C      -41.61420000     -33.92160000     -70.17060000
C      -41.90950000     -34.27640000     -68.87960000
H      -43.29240000     -35.37740000     -67.65600000
H      -43.60910000     -36.00990000     -71.83400000
H      -40.84170000     -33.25230000     -70.39050000
H      -41.48760000     -33.75160000     -68.03880000
C      -41.81080000     -34.29910000     -72.69730000
H      -42.39310000     -34.87090000     -73.42810000
H      -40.79060000     -34.52340000     -72.91660000
C      -44.71240000     -36.88890000     -69.52200000
H      -44.74040000     -37.67210000     -70.25520000
H      -44.58120000     -37.35470000     -68.51860000
S      -41.94030000     -32.50590000     -73.15170000
S      -46.41180000     -36.15120000     -69.62620000
C      -43.47150000     -32.11330000     -72.26850000
H      -43.65950000     -32.82550000     -71.48470000
H      -43.36130000     -31.12260000     -71.81030000
C      -46.82290000     -36.05710000     -71.40890000
H      -47.86980000     -36.35900000     -71.54950000
H      -46.23970000     -36.92980000     -71.74770000
C      -46.40550000     -34.74300000     -72.07580000
H      -45.45880000     -34.49400000     -71.72500000
H      -46.38650000     -34.93790000     -73.15050000
C      -44.57930000     -32.01320000     -73.30490000
H      -44.73610000     -33.02680000     -73.59600000
H      -44.25540000     -31.46190000     -74.17710000
C      -45.88320000     -31.37130000     -72.72730000
C      -46.26010000     -30.05280000     -72.84720000
C      -46.93840000     -32.10310000     -71.94220000
H      -45.63760000     -29.26390000     -73.23660000
C      -47.87930000     -31.30770000     -71.37330000
C      -47.26000000     -33.55960000     -71.74920000
C      -48.43300000     -33.68270000     -71.04650000
S      -47.73480000     -29.65660000     -71.87780000
S      -49.24530000     -32.19090000     -70.69060000
H      -48.89090000     -34.61630000     -70.72280000
