40
Properties=species:S:1:pos:R:3 #=T CELL(abcABC):=T 1.889726e+02=T 90.00000=T Traj:=T positionsangstrom=T Step:=T 0=T Bead:=T pbc="F F F"
C      -45.82620000     -33.92400000     -67.49410000
C      -46.13360000     -33.75030000     -68.81700000
C      -45.20570000     -34.11580000     -69.72110000
C      -43.96500000     -34.68310000     -69.35710000
C      -43.72200000     -34.94220000     -68.03400000
C      -44.65100000     -34.52880000     -67.08500000
H      -46.46020000     -33.46940000     -66.83610000
H      -45.29720000     -33.88300000     -70.77400000
H      -42.73910000     -35.35930000     -67.62990000
H      -44.46340000     -34.58680000     -66.00490000
C      -42.98360000     -35.10090000     -70.48790000
H      -43.54110000     -35.39980000     -71.38760000
H      -42.44600000     -35.94430000     -70.22210000
C      -47.35100000     -32.95370000     -69.20970000
H      -47.72550000     -33.17810000     -70.21760000
H      -48.21110000     -33.08460000     -68.47940000
S      -41.85830000     -33.55440000     -70.94150000
S      -46.98760000     -31.06310000     -69.32270000
C      -42.99380000     -32.16960000     -71.11510000
H      -43.84860000     -32.39580000     -70.51330000
H      -42.66340000     -31.28330000     -70.57160000
C      -47.61490000     -30.56570000     -71.00150000
H      -47.80140000     -29.48470000     -70.94800000
H      -48.68220000     -30.99630000     -71.12970000
C      -46.59350000     -30.89450000     -72.12580000
H      -46.70790000     -30.09960000     -72.90580000
H      -45.54150000     -30.84230000     -71.67120000
C      -43.42400000     -31.94110000     -72.59130000
H      -42.52680000     -31.84200000     -73.18150000
H      -43.99810000     -30.92570000     -72.57810000
C      -44.23580000     -33.05060000     -73.15210000
C      -43.66940000     -34.10690000     -73.77270000
C      -45.66670000     -33.16090000     -73.15360000
H      -42.66810000     -34.29400000     -73.74640000
C      -46.11860000     -34.34990000     -73.69970000
C      -46.72710000     -32.26040000     -72.74960000
C      -47.96050000     -32.87160000     -72.91960000
S      -44.83710000     -35.37250000     -74.23180000
S      -47.84330000     -34.45430000     -73.66180000
H      -48.91500000     -32.47570000     -72.51550000
