40
Properties=species:S:1:pos:R:3 #=T CELL(abcABC):=T 1.889726e+02=T 90.00000=T Traj:=T positionsangstrom=T Step:=T 0=T Bead:=T pbc="F F F"
C      -47.87770000     -30.85250000     -72.20550000
C      -47.04530000     -31.24200000     -73.27230000
C      -47.12720000     -32.57120000     -73.72200000
C      -48.15380000     -33.39490000     -73.28720000
C      -49.05790000     -32.96210000     -72.25410000
C      -48.87090000     -31.67060000     -71.66870000
H      -47.63950000     -29.85320000     -71.71670000
H      -46.45030000     -33.00440000     -74.49590000
H      -49.89180000     -33.47540000     -71.76690000
H      -49.53800000     -31.35020000     -70.92120000
C      -48.14210000     -34.80350000     -73.75890000
H      -48.53570000     -34.88680000     -74.76930000
H      -48.64070000     -35.44930000     -73.05830000
C      -45.99680000     -30.31800000     -73.90340000
H      -46.32950000     -30.07590000     -74.93290000
H      -46.08510000     -29.31320000     -73.37240000
S      -46.41160000     -35.50180000     -73.86170000
S      -44.25550000     -30.90690000     -73.67280000
C      -46.02200000     -35.20010000     -72.11480000
H      -46.31600000     -34.24640000     -71.61290000
H      -46.59850000     -35.88680000     -71.51110000
C      -44.38850000     -31.72400000     -72.01980000
H      -45.16310000     -32.58350000     -72.16280000
H      -44.84830000     -31.06040000     -71.30770000
C      -43.07690000     -32.35390000     -71.57650000
H      -42.64000000     -33.15290000     -72.20520000
H      -42.31590000     -31.57790000     -71.60580000
C      -44.54710000     -35.43270000     -71.78890000
H      -43.78980000     -34.80770000     -72.39670000
H      -44.24080000     -36.45660000     -72.06670000
C      -44.27350000     -35.29250000     -70.32680000
C      -44.58100000     -36.33350000     -69.47630000
C      -43.76480000     -34.10020000     -69.70270000
H      -44.94190000     -37.33120000     -69.63950000
C      -43.76070000     -34.27280000     -68.26950000
C      -43.23070000     -32.79270000     -70.12810000
C      -42.92440000     -32.00090000     -69.02530000
S      -44.35550000     -35.80420000     -67.79920000
S      -43.11520000     -32.81430000     -67.46750000
H      -42.75170000     -30.94900000     -69.02090000
