40
Properties=species:S:1:pos:R:3 #=T CELL(abcABC):=T 1.889726e+02=T 90.00000=T Traj:=T positionsangstrom=T Step:=T 0=T Bead:=T pbc="F F F"
C      -48.22830000     -30.80620000     -72.15950000
C      -47.29150000     -31.21250000     -73.17900000
C      -47.42110000     -32.51920000     -73.69650000
C      -48.23690000     -33.48410000     -73.11770000
C      -49.07660000     -33.10190000     -72.02650000
C      -49.11600000     -31.75890000     -71.58300000
H      -48.13430000     -29.82660000     -71.76600000
H      -46.75120000     -32.75930000     -74.49570000
H      -49.52400000     -33.91930000     -71.48220000
H      -49.80250000     -31.44560000     -70.79110000
C      -48.36870000     -34.85750000     -73.63010000
H      -48.67550000     -34.86340000     -74.66740000
H      -49.18110000     -35.35330000     -73.05290000
C      -46.34950000     -30.23540000     -73.76180000
H      -46.51510000     -30.01570000     -74.81610000
H      -46.41650000     -29.32690000     -73.16520000
S      -46.83570000     -35.84270000     -73.53160000
S      -44.57620000     -30.80090000     -73.76950000
C      -46.11160000     -35.41940000     -71.85560000
H      -46.46410000     -34.43570000     -71.62500000
H      -46.42690000     -36.07420000     -71.11910000
C      -44.39760000     -31.18920000     -71.90570000
H      -45.33220000     -31.56790000     -71.47460000
H      -44.32160000     -30.24750000     -71.34640000
C      -43.29770000     -32.13890000     -71.65490000
H      -43.53630000     -32.96700000     -72.27530000
H      -42.34380000     -31.67810000     -72.01270000
C      -44.58470000     -35.41320000     -71.88930000
H      -44.15550000     -34.69700000     -72.58360000
H      -44.21950000     -36.47050000     -72.16670000
C      -44.07120000     -35.23950000     -70.49650000
C      -44.15250000     -36.30190000     -69.66010000
C      -43.53610000     -34.01160000     -69.85040000
H      -44.63410000     -37.26280000     -69.94650000
C      -43.29840000     -34.25750000     -68.52690000
C      -43.19900000     -32.65420000     -70.19030000
C      -42.78340000     -31.89490000     -69.09260000
S      -43.67250000     -35.90660000     -68.03610000
S      -42.73060000     -32.83990000     -67.57080000
H      -42.46220000     -30.79840000     -69.05220000
