40
Properties=species:S:1:pos:R:3 #=T CELL(abcABC):=T 1.889726e+02=T 90.00000=T Traj:=T positionsangstrom=T Step:=T 0=T Bead:=T pbc="F F F"
C      -48.11440000     -30.80600000     -71.99220000
C      -47.25390000     -31.21660000     -73.02880000
C      -47.33420000     -32.46490000     -73.57350000
C      -48.25080000     -33.40900000     -73.09150000
C      -49.15620000     -33.02720000     -72.06690000
C      -49.05820000     -31.72080000     -71.54120000
H      -47.96670000     -29.83060000     -71.65890000
H      -46.71060000     -32.74480000     -74.41210000
H      -49.93260000     -33.71220000     -71.78090000
H      -49.71390000     -31.23220000     -70.75090000
C      -48.24520000     -34.79990000     -73.72140000
H      -48.36420000     -34.72130000     -74.81240000
H      -49.07720000     -35.41210000     -73.27010000
C      -46.22970000     -30.23430000     -73.65160000
H      -46.51440000     -30.15970000     -74.75610000
H      -46.25090000     -29.25170000     -73.13600000
S      -46.73810000     -35.81660000     -73.56530000
S      -44.55910000     -31.02090000     -73.71210000
C      -46.00070000     -35.16930000     -71.99340000
H      -46.27400000     -34.10140000     -71.98180000
H      -46.62480000     -35.58990000     -71.11900000
C      -44.39940000     -31.39250000     -71.88790000
H      -45.18670000     -32.02350000     -71.61280000
H      -44.44210000     -30.39690000     -71.36020000
C      -43.11190000     -32.08500000     -71.67840000
H      -43.04580000     -32.84030000     -72.46560000
H      -42.27620000     -31.40160000     -71.73510000
C      -44.48750000     -35.35360000     -71.96330000
H      -44.18610000     -34.56630000     -72.54770000
H      -44.24330000     -36.28840000     -72.52510000
C      -44.00290000     -35.37890000     -70.53580000
C      -44.06790000     -36.37680000     -69.60530000
C      -43.56560000     -34.05580000     -69.91000000
H      -44.49670000     -37.38530000     -69.71600000
C      -43.47510000     -34.24450000     -68.53410000
C      -43.06910000     -32.73290000     -70.25500000
C      -42.84700000     -31.92590000     -69.15360000
S      -43.88640000     -35.78620000     -67.99330000
S      -42.98570000     -32.83980000     -67.64230000
H      -42.46010000     -30.93410000     -69.14240000
