40
Properties=species:S:1:pos:R:3 #=T CELL(abcABC):=T 1.889726e+02=T 90.00000=T Traj:=T positionsangstrom=T Step:=T 0=T Bead:=T pbc="F F F"
C      -49.17060000     -32.31960000     -73.30940000
C      -47.80870000     -32.13130000     -73.50890000
C      -47.06220000     -31.29950000     -72.66730000
C      -47.64380000     -30.66050000     -71.57170000
C      -49.10910000     -30.74150000     -71.42000000
C      -49.84430000     -31.63780000     -72.24620000
H      -49.79180000     -33.04540000     -73.87150000
H      -45.98210000     -31.19670000     -72.84920000
H      -49.60390000     -30.39850000     -70.51310000
H      -50.85780000     -31.70430000     -71.99500000
C      -46.81530000     -30.10060000     -70.41460000
H      -46.76830000     -30.77120000     -69.59990000
H      -47.13670000     -29.10530000     -70.01460000
C      -47.00440000     -32.96350000     -74.48440000
H      -47.28730000     -32.76360000     -75.49430000
H      -45.90780000     -32.77640000     -74.50780000
S      -45.02470000     -29.80660000     -70.74960000
S      -47.06740000     -34.81950000     -74.25780000
C      -44.18570000     -31.24480000     -69.97660000
H      -43.44390000     -30.80170000     -69.24000000
H      -44.94750000     -31.87340000     -69.39090000
C      -46.90410000     -34.86930000     -72.34710000
H      -46.97820000     -35.90030000     -72.06890000
H      -47.83800000     -34.33630000     -71.92010000
C      -45.70130000     -34.09360000     -71.79770000
H      -45.14640000     -33.59310000     -72.64280000
H      -45.95620000     -33.17490000     -71.25960000
C      -43.30020000     -32.04200000     -70.97710000
H      -42.42720000     -31.42370000     -71.20260000
H      -43.77600000     -32.27950000     -71.94310000
C      -42.81360000     -33.34580000     -70.34330000
C      -41.59620000     -33.55770000     -69.71700000
C      -43.58070000     -34.55960000     -70.31490000
H      -40.76520000     -32.81710000     -69.63550000
C      -42.90620000     -35.67320000     -69.72340000
C      -44.85890000     -34.98370000     -70.84800000
C      -45.06980000     -36.39110000     -70.63620000
S      -41.31470000     -35.21290000     -69.06640000
S      -43.66220000     -37.28000000     -69.85320000
H      -45.91660000     -36.99170000     -70.77830000
