40
Properties=species:S:1:pos:R:3 #=T CELL(abcABC):=T 1.889726e+02=T 90.00000=T Traj:=T positionsangstrom=T Step:=T 0=T Bead:=T pbc="F F F"
C      -47.82610000     -30.68580000     -72.45100000
C      -46.95150000     -31.00520000     -73.46290000
C      -47.12200000     -32.27370000     -74.02920000
C      -47.91730000     -33.22720000     -73.36770000
C      -48.78120000     -32.93440000     -72.31270000
C      -48.72090000     -31.61680000     -71.90540000
H      -47.88660000     -29.72680000     -71.94110000
H      -46.52400000     -32.58790000     -74.84050000
H      -49.43290000     -33.66330000     -71.84280000
H      -49.41370000     -31.47640000     -71.14470000
C      -47.93480000     -34.63940000     -74.00000000
H      -48.20920000     -34.49650000     -75.07460000
H      -48.79610000     -35.26720000     -73.63790000
C      -45.82140000     -30.08490000     -73.88700000
H      -45.85270000     -30.07850000     -74.97300000
H      -45.76370000     -29.11940000     -73.41630000
S      -46.31580000     -35.54340000     -73.96460000
S      -44.18030000     -30.95750000     -73.57010000
C      -46.13280000     -35.46310000     -72.08460000
H      -46.65790000     -34.50710000     -71.76940000
H      -46.79370000     -36.28900000     -71.82250000
C      -44.49440000     -31.60840000     -71.88900000
H      -45.33070000     -32.23400000     -71.98900000
H      -44.73720000     -30.88270000     -71.09220000
C      -43.18800000     -32.36960000     -71.46950000
H      -43.04840000     -33.08770000     -72.27110000
H      -42.40480000     -31.61960000     -71.51780000
C      -44.62800000     -35.59780000     -71.68610000
H      -44.19910000     -34.75810000     -72.23920000
H      -44.19960000     -36.53710000     -71.99260000
C      -44.45240000     -35.34480000     -70.20690000
C      -44.75970000     -36.29680000     -69.26370000
C      -43.90170000     -34.19830000     -69.64370000
H      -45.25060000     -37.29170000     -69.27960000
C      -43.89810000     -34.29940000     -68.23970000
C      -43.23790000     -32.98470000     -70.07460000
C      -42.85970000     -32.21560000     -68.99140000
S      -44.58940000     -35.71820000     -67.62280000
S      -43.12480000     -33.00550000     -67.42920000
H      -42.45490000     -31.18330000     -69.00940000
