40
Properties=species:S:1:pos:R:3 #=T CELL(abcABC):=T 1.889726e+02=T 90.00000=T Traj:=T positionsangstrom=T Step:=T 0=T Bead:=T pbc="F F F"
C      -48.06210000     -30.86300000     -72.19170000
C      -47.25610000     -31.22470000     -73.25990000
C      -47.39330000     -32.50430000     -73.82960000
C      -48.29110000     -33.39690000     -73.20780000
C      -49.08570000     -33.01240000     -72.10330000
C      -48.91090000     -31.76490000     -71.55550000
H      -48.03220000     -29.87640000     -71.73000000
H      -46.60070000     -32.79780000     -74.54480000
H      -49.71980000     -33.80940000     -71.72130000
H      -49.38970000     -31.49910000     -70.57450000
C      -48.40080000     -34.79750000     -73.65530000
H      -48.79470000     -34.95740000     -74.67790000
H      -49.16330000     -35.35800000     -73.06740000
C      -46.15210000     -30.22400000     -73.66690000
H      -46.38290000     -29.76320000     -74.60540000
H      -46.08170000     -29.37650000     -72.99750000
S      -46.66350000     -35.64730000     -73.65170000
S      -44.44260000     -30.95950000     -73.68310000
C      -45.86280000     -35.18670000     -72.04840000
H      -45.85390000     -34.14890000     -71.98440000
H      -46.31630000     -35.75490000     -71.19790000
C      -44.32830000     -31.70700000     -72.00420000
H      -45.03980000     -32.56890000     -71.97710000
H      -44.61190000     -31.00410000     -71.25650000
C      -42.93020000     -32.25950000     -71.60390000
H      -42.58240000     -32.96990000     -72.37630000
H      -42.22530000     -31.42910000     -71.69110000
C      -44.35440000     -35.52420000     -71.88260000
H      -43.72660000     -34.92650000     -72.55900000
H      -44.07460000     -36.55530000     -72.18270000
C      -44.03900000     -35.32920000     -70.44180000
C      -44.43710000     -36.29840000     -69.54420000
C      -43.47460000     -34.12550000     -69.85140000
H      -44.64790000     -37.34330000     -69.68270000
C      -43.58170000     -34.22650000     -68.43900000
C      -42.98130000     -32.77680000     -70.19700000
C      -42.76230000     -31.94100000     -69.10510000
S      -44.06880000     -35.80650000     -67.90480000
S      -43.19880000     -32.68230000     -67.55110000
H      -42.38090000     -30.99580000     -69.03380000
