40
Properties=species:S:1:pos:R:3 #=T CELL(abcABC):=T 1.889726e+02=T 90.00000=T Traj:=T positionsangstrom=T Step:=T 0=T Bead:=T pbc="F F F"
C      -47.28900000     -30.90120000     -72.37650000
C      -46.55710000     -31.02750000     -73.56360000
C      -46.82900000     -32.19180000     -74.27720000
C      -47.80620000     -33.15470000     -73.92490000
C      -48.63390000     -32.84220000     -72.82990000
C      -48.38870000     -31.65460000     -72.17100000
H      -47.03290000     -30.02030000     -71.72540000
H      -46.08470000     -32.43350000     -75.09520000
H      -49.35270000     -33.61560000     -72.52870000
H      -49.00410000     -31.39760000     -71.28130000
C      -47.80360000     -34.47730000     -74.60660000
H      -47.69650000     -34.31320000     -75.71190000
H      -48.72690000     -35.07200000     -74.47740000
C      -45.43440000     -30.05980000     -73.92750000
H      -45.42820000     -29.69660000     -74.95560000
H      -45.70470000     -29.19160000     -73.33860000
S      -46.35420000     -35.43720000     -74.04510000
S      -43.87250000     -30.91800000     -73.37690000
C      -46.62590000     -35.45000000     -72.18410000
H      -47.30470000     -34.74190000     -71.77630000
H      -47.13780000     -36.36960000     -71.75410000
C      -44.38970000     -31.77780000     -71.93250000
H      -45.06890000     -32.61750000     -72.20360000
H      -44.95260000     -31.12980000     -71.34970000
C      -43.15800000     -32.35850000     -71.19770000
H      -42.85180000     -33.10230000     -71.88480000
H      -42.39210000     -31.59390000     -71.19820000
C      -45.21190000     -35.27730000     -71.58650000
H      -44.72750000     -34.41550000     -71.92900000
H      -44.51840000     -36.01190000     -72.05000000
C      -44.94770000     -35.16500000     -70.11520000
C      -45.24760000     -36.12710000     -69.18760000
C      -44.08740000     -34.21330000     -69.41610000
H      -45.92710000     -36.93430000     -69.46650000
C      -43.97190000     -34.44070000     -68.07260000
C      -43.39690000     -33.01840000     -69.86090000
C      -43.00440000     -32.31870000     -68.79780000
S      -44.89450000     -35.82700000     -67.47550000
S      -43.04760000     -33.21540000     -67.23470000
H      -42.51900000     -31.29300000     -68.91950000
