40
Properties=species:S:1:pos:R:3 #=T CELL(abcABC):=T 1.889726e+02=T 90.00000=T Traj:=T positionsangstrom=T Step:=T 0=T Bead:=T pbc="F F F"
C      -48.40040000     -30.95280000     -72.35520000
C      -47.77680000     -31.64500000     -73.44520000
C      -47.95090000     -33.01000000     -73.59300000
C      -48.58500000     -33.73090000     -72.55920000
C      -49.01270000     -33.08790000     -71.39820000
C      -48.99510000     -31.68660000     -71.35100000
H      -48.39760000     -29.81740000     -72.32850000
H      -47.48770000     -33.52450000     -74.41590000
H      -49.42740000     -33.66670000     -70.53970000
H      -49.43040000     -31.22680000     -70.45690000
C      -48.66990000     -35.21360000     -72.74760000
H      -49.20020000     -35.47470000     -73.65740000
H      -49.13430000     -35.76970000     -71.90740000
C      -46.87980000     -30.72920000     -74.39440000
H      -47.10940000     -31.07560000     -75.41780000
H      -47.10260000     -29.69010000     -74.21250000
S      -46.99130000     -36.05380000     -72.94700000
S      -45.07960000     -31.08080000     -74.15960000
C      -46.19130000     -35.38060000     -71.42770000
H      -46.47190000     -34.40220000     -71.25070000
H      -46.63120000     -35.98040000     -70.63170000
C      -44.70150000     -31.23510000     -72.19980000
H      -45.65680000     -31.61280000     -71.83600000
H      -44.53590000     -30.29830000     -71.63860000
C      -43.55240000     -32.14580000     -72.05760000
H      -43.79900000     -32.99420000     -72.73220000
H      -42.62620000     -31.73710000     -72.61800000
C      -44.64200000     -35.57710000     -71.57220000
H      -44.36580000     -34.92600000     -72.36040000
H      -44.37970000     -36.55780000     -71.75310000
C      -43.89740000     -35.17610000     -70.30260000
C      -43.81480000     -36.05960000     -69.24660000
C      -43.31270000     -33.87210000     -69.95370000
H      -44.06760000     -37.14110000     -69.33000000
C      -42.81810000     -33.89080000     -68.67120000
C      -43.18580000     -32.57510000     -70.62520000
C      -42.48500000     -31.69940000     -69.81690000
S      -43.04160000     -35.33940000     -67.80820000
S      -42.08680000     -32.38900000     -68.22800000
H      -42.56310000     -30.62180000     -69.94600000
