40
Properties=species:S:1:pos:R:3 #=T CELL(abcABC):=T 1.889726e+02=T 90.00000=T Traj:=T positionsangstrom=T Step:=T 0=T Bead:=T pbc="F F F"
C      -48.41840000     -30.79770000     -72.30710000
C      -47.60900000     -31.28790000     -73.39040000
C      -47.61390000     -32.68570000     -73.63900000
C      -48.37860000     -33.59370000     -72.86510000
C      -49.13820000     -33.08030000     -71.79430000
C      -49.17210000     -31.69730000     -71.55150000
H      -48.43310000     -29.74460000     -72.06900000
H      -47.10300000     -33.11260000     -74.49650000
H      -49.83220000     -33.64620000     -71.18760000
H      -49.89940000     -31.36680000     -70.83540000
C      -48.48430000     -35.12130000     -73.11030000
H      -49.04410000     -35.30060000     -73.96870000
H      -48.98990000     -35.54460000     -72.30730000
C      -46.70060000     -30.35430000     -74.09040000
H      -46.58500000     -30.44380000     -75.14570000
H      -47.08500000     -29.34740000     -73.94680000
S      -46.83220000     -35.86970000     -73.23990000
S      -44.91700000     -30.44630000     -73.43590000
C      -46.02600000     -35.30140000     -71.75690000
H      -46.08840000     -34.23990000     -71.67320000
H      -46.43870000     -35.74270000     -70.89290000
C      -45.02080000     -31.56810000     -72.03120000
H      -45.74670000     -32.36910000     -72.18120000
H      -45.19940000     -30.98960000     -71.10040000
C      -43.61630000     -32.36170000     -71.88060000
H      -43.65540000     -33.11190000     -72.61280000
H      -42.81440000     -31.65900000     -72.26350000
C      -44.52800000     -35.68680000     -71.83040000
H      -44.07550000     -35.26530000     -72.75780000
H      -44.42350000     -36.80530000     -71.89720000
C      -43.89650000     -35.35450000     -70.45030000
C      -43.84110000     -36.28600000     -69.46990000
C      -43.35910000     -34.08970000     -69.95510000
H      -44.16850000     -37.35830000     -69.56620000
C      -42.98390000     -34.14320000     -68.62890000
C      -43.21980000     -32.76290000     -70.49250000
C      -42.67630000     -31.90250000     -69.57660000
S      -43.29990000     -35.67360000     -67.89050000
S      -42.23610000     -32.70640000     -68.11300000
H      -42.32040000     -30.92540000     -69.72570000
