40
Properties=species:S:1:pos:R:3 #=T CELL(abcABC):=T 1.889726e+02=T 90.00000=T Traj:=T positionsangstrom=T Step:=T 0=T Bead:=T pbc="F F F"
C      -48.43300000     -30.82010000     -72.23020000
C      -47.64790000     -31.35340000     -73.29760000
C      -47.75930000     -32.73310000     -73.55670000
C      -48.52050000     -33.59450000     -72.73010000
C      -49.33710000     -33.04170000     -71.75180000
C      -49.34760000     -31.63040000     -71.58660000
H      -48.46350000     -29.81030000     -71.95090000
H      -47.11950000     -33.07170000     -74.37880000
H      -49.94370000     -33.66680000     -71.08710000
H      -50.00090000     -31.22970000     -70.84230000
C      -48.59450000     -35.11880000     -73.06480000
H      -49.00240000     -35.42130000     -74.11680000
H      -49.22160000     -35.70890000     -72.29890000
C      -46.74240000     -30.54420000     -74.21100000
H      -46.74600000     -31.10760000     -75.18380000
H      -47.10390000     -29.49840000     -74.31860000
S      -46.87280000     -35.89390000     -73.18020000
S      -44.95450000     -30.51020000     -73.62160000
C      -46.02160000     -35.14940000     -71.65830000
H      -46.16340000     -34.04360000     -71.71430000
H      -46.65800000     -35.47980000     -70.78020000
C      -44.78010000     -31.65070000     -72.06910000
H      -45.64040000     -32.34010000     -71.97070000
H      -45.01230000     -30.96420000     -71.23350000
C      -43.38390000     -32.34700000     -72.02670000
H      -43.20680000     -33.17840000     -72.73330000
H      -42.57450000     -31.69220000     -72.32270000
C      -44.59110000     -35.63480000     -71.71290000
H      -44.06340000     -35.17720000     -72.58440000
H      -44.58620000     -36.68310000     -71.95740000
C      -43.88540000     -35.37340000     -70.39520000
C      -43.78840000     -36.26850000     -69.39040000
C      -43.28610000     -34.08340000     -70.04280000
H      -44.04380000     -37.32460000     -69.42670000
C      -42.85200000     -34.12020000     -68.71080000
C      -43.11650000     -32.78010000     -70.59410000
C      -42.50910000     -31.93060000     -69.69270000
S      -43.00680000     -35.71750000     -67.87890000
S      -42.47570000     -32.52870000     -68.03380000
H      -42.59710000     -30.84620000     -69.78690000
