40
Properties=species:S:1:pos:R:3 #=T CELL(abcABC):=T 1.889726e+02=T 90.00000=T Traj:=T positionsangstrom=T Step:=T 0=T Bead:=T pbc="F F F"
C      -48.35340000     -30.91730000     -72.24670000
C      -47.53350000     -31.46620000     -73.21580000
C      -47.68370000     -32.85010000     -73.44450000
C      -48.59040000     -33.62990000     -72.74660000
C      -49.34010000     -33.09460000     -71.67110000
C      -49.31480000     -31.70420000     -71.60180000
H      -48.46390000     -29.84760000     -72.11270000
H      -47.19370000     -33.31340000     -74.29040000
H      -50.09220000     -33.61390000     -71.13460000
H      -49.90750000     -31.08250000     -70.95700000
C      -48.66140000     -35.14860000     -72.87920000
H      -49.18620000     -35.45890000     -73.76100000
H      -49.21780000     -35.51630000     -72.06410000
C      -46.71880000     -30.54560000     -74.11880000
H      -46.91860000     -30.69940000     -75.18260000
H      -46.97710000     -29.51760000     -73.88750000
S      -46.99620000     -35.86510000     -73.08500000
S      -44.90850000     -30.67420000     -73.76800000
C      -46.06130000     -35.33990000     -71.63040000
H      -46.11550000     -34.26460000     -71.53390000
H      -46.36810000     -35.80060000     -70.72850000
C      -44.79560000     -31.47800000     -72.16690000
H      -45.60140000     -32.16270000     -72.04590000
H      -44.73500000     -30.77740000     -71.31820000
C      -43.43520000     -32.31170000     -72.01910000
H      -43.56630000     -33.19810000     -72.65800000
H      -42.62600000     -31.66420000     -72.28400000
C      -44.57470000     -35.78060000     -71.71400000
H      -44.04910000     -35.37380000     -72.55180000
H      -44.53230000     -36.85020000     -71.81350000
C      -43.83340000     -35.35420000     -70.42310000
C      -43.66680000     -36.28390000     -69.43120000
C      -43.43960000     -34.00700000     -69.94120000
H      -43.83460000     -37.34480000     -69.48740000
C      -42.94780000     -33.99160000     -68.61710000
C      -43.29600000     -32.71140000     -70.58210000
C      -42.76480000     -31.73460000     -69.72550000
S      -42.93570000     -35.58590000     -67.92560000
S      -42.32270000     -32.46180000     -68.16890000
H      -42.49040000     -30.68760000     -69.97790000
