40
Properties=species:S:1:pos:R:3 #=T CELL(abcABC):=T 1.889726e+02=T 90.00000=T Traj:=T positionsangstrom=T Step:=T 0=T Bead:=T pbc="F F F"
C      -47.16330000     -33.15920000     -73.06990000
C      -46.16070000     -34.07410000     -73.52190000
C      -45.90660000     -35.25650000     -72.83470000
C      -46.55900000     -35.59750000     -71.67410000
C      -47.53550000     -34.70540000     -71.18830000
C      -47.87370000     -33.55360000     -71.96310000
H      -47.15770000     -32.16230000     -73.56860000
H      -45.14500000     -35.88800000     -73.30140000
H      -47.88820000     -34.78760000     -70.18510000
H      -48.57450000     -32.88070000     -71.38350000
C      -46.21280000     -36.97550000     -71.00560000
H      -45.32410000     -37.41370000     -71.55460000
H      -47.04810000     -37.66670000     -70.99590000
C      -45.41990000     -33.74670000     -74.82160000
H      -44.71510000     -34.52810000     -75.10190000
H      -46.17790000     -33.71090000     -75.65440000
S      -45.90170000     -36.67330000     -69.23380000
S      -44.49200000     -32.10480000     -74.85860000
C      -44.11930000     -36.10150000     -69.05140000
H      -44.12550000     -35.73410000     -68.03100000
H      -43.31570000     -36.84520000     -69.17470000
C      -42.91770000     -32.35970000     -73.99850000
H      -42.25630000     -31.48800000     -74.07730000
H      -42.40340000     -33.14590000     -74.66260000
C      -43.13310000     -32.95070000     -72.60370000
H      -43.55850000     -33.95550000     -72.75220000
H      -42.15100000     -33.15060000     -72.19070000
C      -43.95250000     -34.94690000     -70.03060000
H      -44.17270000     -35.20670000     -71.03960000
H      -42.92140000     -34.71000000     -70.04190000
C      -44.67150000     -33.70320000     -69.62690000
C      -45.42490000     -33.55680000     -68.50460000
C      -44.53040000     -32.42730000     -70.40570000
H      -45.91970000     -34.34630000     -68.00760000
C      -45.31020000     -31.44210000     -69.88020000
C      -43.85760000     -31.96760000     -71.64870000
C      -44.21440000     -30.67110000     -71.95680000
S      -46.07790000     -31.89490000     -68.35750000
S      -45.24690000     -29.95820000     -70.74740000
H      -43.82900000     -29.98750000     -72.75570000
