40
Properties=species:S:1:pos:R:3 #=T CELL(abcABC):=T 1.889726e+02=T 90.00000=T Traj:=T positionsangstrom=T Step:=T 0=T Bead:=T pbc="F F F"
C      -47.25050000     -33.11630000     -73.17460000
C      -46.50410000     -34.22330000     -73.53660000
C      -46.46220000     -35.30740000     -72.60100000
C      -47.08480000     -35.21010000     -71.34540000
C      -47.87780000     -34.08260000     -71.03180000
C      -47.97490000     -33.02900000     -71.91500000
H      -47.43130000     -32.30610000     -73.87900000
H      -46.01870000     -36.22880000     -72.90900000
H      -48.27060000     -33.96780000     -70.05660000
H      -48.53770000     -32.06570000     -71.81780000
C      -47.03800000     -36.38410000     -70.37550000
H      -46.40190000     -37.14240000     -70.76710000
H      -48.10980000     -36.77860000     -70.34330000
C      -45.67730000     -34.29750000     -74.77850000
H      -45.06400000     -35.23210000     -74.70830000
H      -46.26530000     -34.43100000     -75.68850000
S      -46.50230000     -35.87640000     -68.66190000
S      -44.46890000     -32.85310000     -75.01790000
C      -44.65190000     -35.99530000     -68.81240000
H      -44.26960000     -36.03790000     -67.78390000
H      -44.33620000     -37.02350000     -69.09700000
C      -42.98520000     -33.49120000     -74.14670000
H      -42.23300000     -32.78150000     -74.33370000
H      -42.71420000     -34.46670000     -74.66430000
C      -43.08850000     -33.66940000     -72.68090000
H      -43.76500000     -34.49610000     -72.56250000
H      -42.13410000     -33.84960000     -72.22740000
C      -44.06030000     -34.99350000     -69.79800000
H      -44.32670000     -35.27560000     -70.79700000
H      -43.01390000     -35.15750000     -69.73650000
C      -44.50950000     -33.59280000     -69.54770000
C      -44.95730000     -33.05670000     -68.34050000
C      -44.28560000     -32.56010000     -70.59130000
H      -45.04440000     -33.60960000     -67.43280000
C      -44.72330000     -31.32020000     -70.12460000
C      -43.71520000     -32.47900000     -71.89850000
C      -43.86530000     -31.23670000     -72.47060000
S      -45.25050000     -31.30130000     -68.44340000
S      -44.69420000     -30.15420000     -71.37730000
H      -43.44580000     -30.82930000     -73.37390000
