40
Properties=species:S:1:pos:R:3 #=T CELL(abcABC):=T 1.889726e+02=T 90.00000=T Traj:=T positionsangstrom=T Step:=T 0=T Bead:=T pbc="F F F"
C      -47.88110000     -31.26880000     -72.26650000
C      -47.51570000     -32.02720000     -73.40950000
C      -47.87260000     -33.36770000     -73.46890000
C      -48.53340000     -34.00340000     -72.39690000
C      -48.77660000     -33.27590000     -71.23880000
C      -48.43510000     -31.90250000     -71.15580000
H      -47.72080000     -30.16170000     -72.22280000
H      -47.72300000     -33.98370000     -74.35520000
H      -49.34490000     -33.72010000     -70.45530000
H      -48.79300000     -31.24500000     -70.31340000
C      -48.89040000     -35.52610000     -72.36830000
H      -49.40860000     -35.94720000     -73.24960000
H      -49.66800000     -35.61310000     -71.59140000
C      -46.80490000     -31.34260000     -74.54780000
H      -47.26290000     -31.63990000     -75.48380000
H      -47.05350000     -30.28880000     -74.31800000
S      -47.42660000     -36.65240000     -72.03010000
S      -45.01790000     -31.81730000     -74.65820000
C      -46.63160000     -35.85510000     -70.53320000
H      -47.45140000     -35.38870000     -70.07570000
H      -46.16910000     -36.60500000     -69.98280000
C      -44.39360000     -31.65010000     -72.90380000
H      -45.20610000     -31.87040000     -72.24350000
H      -44.02340000     -30.66660000     -72.62860000
C      -43.29260000     -32.68770000     -72.67880000
H      -43.69110000     -33.69480000     -73.01970000
H      -42.51860000     -32.46150000     -73.29060000
C      -45.54720000     -34.76360000     -70.96560000
H      -45.96180000     -33.81950000     -71.37690000
H      -44.90290000     -35.26570000     -71.76170000
C      -44.57420000     -34.26050000     -69.88160000
C      -44.68500000     -34.72180000     -68.60650000
C      -43.44280000     -33.42260000     -70.12240000
H      -45.46290000     -35.36220000     -68.16020000
C      -42.76390000     -33.20340000     -68.91480000
C      -42.80700000     -32.75240000     -71.16440000
C      -41.76110000     -31.91770000     -70.78850000
S      -43.36870000     -34.18180000     -67.56620000
S      -41.44530000     -32.03360000     -69.03960000
H      -41.26850000     -31.08920000     -71.32790000
