40
Properties=species:S:1:pos:R:3 #=T CELL(abcABC):=T 1.889726e+02=T 90.00000=T Traj:=T positionsangstrom=T Step:=T 0=T Bead:=T pbc="F F F"
C      -47.68370000     -30.53820000     -72.43470000
C      -47.36890000     -31.62540000     -71.58530000
C      -46.85470000     -32.79550000     -72.19950000
C      -46.51660000     -32.90400000     -73.57860000
C      -46.77780000     -31.76540000     -74.37080000
C      -47.43700000     -30.68390000     -73.83240000
H      -48.14360000     -29.60120000     -72.08560000
H      -46.78470000     -33.75470000     -71.57560000
H      -46.48000000     -31.67230000     -75.38200000
H      -47.68660000     -29.84280000     -74.54040000
C      -45.79500000     -34.14920000     -73.98760000
H      -46.26010000     -34.57870000     -74.85150000
H      -45.89000000     -34.91640000     -73.21400000
C      -47.53020000     -31.49440000     -70.08080000
H      -48.44560000     -30.99740000     -69.78610000
H      -47.34770000     -32.37630000     -69.55880000
S      -43.99200000     -34.02390000     -74.39560000
S      -46.27370000     -30.32270000     -69.24380000
C      -43.18880000     -32.89780000     -73.10360000
H      -42.52290000     -32.30330000     -73.73240000
H      -43.94590000     -32.26210000     -72.67020000
C      -44.64980000     -30.89570000     -69.94050000
H      -44.10220000     -29.98610000     -70.04670000
H      -44.87070000     -31.26930000     -70.92620000
C      -43.93200000     -31.98310000     -69.09430000
H      -42.85240000     -32.14160000     -69.43940000
H      -43.88840000     -31.75030000     -68.00550000
C      -42.39710000     -33.70150000     -72.05700000
H      -42.00060000     -32.95660000     -71.35080000
H      -41.50630000     -34.14850000     -72.49850000
C      -43.27400000     -34.75590000     -71.31740000
C      -43.37630000     -36.01790000     -71.83600000
C      -44.30590000     -34.46960000     -70.33980000
H      -42.94320000     -36.38990000     -72.78940000
C      -45.08170000     -35.62110000     -70.06210000
C      -44.61280000     -33.42970000     -69.38060000
C      -45.44790000     -33.83180000     -68.36720000
S      -44.68510000     -36.96610000     -71.09520000
S      -46.14460000     -35.47880000     -68.68230000
H      -45.73730000     -33.16220000     -67.63460000
