40
Properties=species:S:1:pos:R:3 #=T CELL(abcABC):=T 1.889726e+02=T 90.00000=T Traj:=T positionsangstrom=T Step:=T 0=T Bead:=T pbc="F F F"
C      -44.27120000     -35.04820000     -75.46600000
C      -44.75450000     -35.57000000     -74.28200000
C      -46.01680000     -35.05800000     -73.71040000
C      -46.76490000     -34.14030000     -74.40010000
C      -46.34780000     -33.76820000     -75.70230000
C      -45.07730000     -34.11710000     -76.19100000
H      -43.29540000     -35.39610000     -75.78010000
H      -46.27400000     -35.42800000     -72.76140000
H      -46.98570000     -33.08230000     -76.27350000
H      -44.77240000     -33.58410000     -77.11820000
C      -48.03890000     -33.64710000     -73.85820000
H      -48.33370000     -34.25720000     -72.98430000
H      -48.74390000     -33.80340000     -74.70970000
C      -43.98740000     -36.66760000     -73.60510000
H      -44.05130000     -37.70470000     -74.04710000
H      -42.94100000     -36.22460000     -73.57190000
S      -47.83850000     -31.76730000     -73.52650000
S      -44.35410000     -36.92660000     -71.82110000
C      -46.44010000     -31.70630000     -72.31470000
H      -45.74520000     -32.47810000     -72.67590000
H      -45.93320000     -30.73250000     -72.41370000
C      -44.11210000     -35.28080000     -71.02380000
H      -44.20050000     -34.50580000     -71.82300000
H      -43.15500000     -35.15060000     -70.60950000
C      -45.05560000     -34.98030000     -69.80420000
H      -46.09430000     -34.91820000     -70.09660000
H      -45.02210000     -35.83130000     -69.07530000
C      -46.89220000     -32.07620000     -70.89600000
H      -47.10490000     -33.17550000     -70.91640000
H      -47.75010000     -31.51760000     -70.66250000
C      -45.93630000     -31.62050000     -69.80490000
C      -45.95900000     -30.32880000     -69.43990000
C      -44.96500000     -32.44010000     -69.02210000
H      -46.51170000     -29.47260000     -69.80220000
C      -44.35490000     -31.66950000     -68.06700000
C      -44.60130000     -33.78610000     -68.97380000
C      -43.75590000     -34.03320000     -67.91900000
S      -44.84360000     -30.00020000     -68.09010000
S      -43.36550000     -32.57610000     -66.98660000
H      -43.44590000     -34.99500000     -67.60200000
