40
Properties=species:S:1:pos:R:3 #=T CELL(abcABC):=T 1.889726e+02=T 90.00000=T Traj:=T positionsangstrom=T Step:=T 0=T Bead:=T pbc="F F F"
C      -47.26140000     -33.21450000     -73.06880000
C      -46.23040000     -33.93410000     -73.60020000
C      -45.78520000     -35.10170000     -72.84770000
C      -46.44220000     -35.56840000     -71.73770000
C      -47.55530000     -34.84660000     -71.27750000
C      -47.90060000     -33.63330000     -71.87900000
H      -47.63040000     -32.40030000     -73.65920000
H      -45.09700000     -35.71400000     -73.37930000
H      -48.26310000     -35.11490000     -70.52400000
H      -48.81350000     -33.16190000     -71.66410000
C      -46.19440000     -36.94170000     -71.12500000
H      -45.32630000     -37.49620000     -71.63620000
H      -47.03600000     -37.63180000     -71.14140000
C      -45.43950000     -33.52190000     -74.83780000
H      -44.66470000     -34.24420000     -75.12950000
H      -46.13230000     -33.38730000     -75.74450000
S      -45.80980000     -36.74190000     -69.30010000
S      -44.56850000     -31.87740000     -74.76890000
C      -44.04390000     -36.31350000     -69.33210000
H      -43.54600000     -36.29340000     -68.35060000
H      -43.47940000     -37.07440000     -69.87180000
C      -42.98020000     -32.28610000     -73.88890000
H      -42.46220000     -31.24230000     -73.91470000
H      -42.42580000     -32.99880000     -74.51030000
C      -42.92240000     -32.74830000     -72.45220000
H      -43.19470000     -33.75270000     -72.35050000
H      -41.93100000     -32.78010000     -72.02130000
C      -43.75810000     -34.91380000     -69.98700000
H      -43.84620000     -35.00290000     -70.98430000
H      -42.72680000     -34.67760000     -69.77300000
C      -44.62380000     -33.71990000     -69.54720000
C      -45.38520000     -33.63390000     -68.37060000
C      -44.52050000     -32.50780000     -70.36580000
H      -45.66460000     -34.40890000     -67.62590000
C      -45.34500000     -31.53650000     -69.88880000
C      -43.88800000     -32.02350000     -71.56090000
C      -44.12370000     -30.65950000     -71.74410000
S      -46.19990000     -31.99300000     -68.48440000
S      -45.37130000     -30.05830000     -70.73460000
H      -43.81000000     -30.05520000     -72.58410000
