40
Properties=species:S:1:pos:R:3 #=T CELL(abcABC):=T 1.889726e+02=T 90.00000=T Traj:=T positionsangstrom=T Step:=T 0=T Bead:=T pbc="F F F"
C      -47.86320000     -31.26420000     -72.30810000
C      -47.48560000     -32.17340000     -73.30600000
C      -47.78820000     -33.51690000     -73.30290000
C      -48.57450000     -33.99770000     -72.20900000
C      -48.90550000     -33.07630000     -71.22580000
C      -48.59870000     -31.75510000     -71.25690000
H      -47.62930000     -30.21490000     -72.24900000
H      -47.36070000     -34.05530000     -74.11240000
H      -49.63300000     -33.39570000     -70.39080000
H      -48.80680000     -31.10780000     -70.40900000
C      -48.93690000     -35.52150000     -71.94480000
H      -49.60110000     -35.91150000     -72.75950000
H      -49.43030000     -35.55750000     -70.95380000
C      -46.78430000     -31.67780000     -74.54440000
H      -47.34660000     -31.89830000     -75.46380000
H      -46.84080000     -30.61360000     -74.47750000
S      -47.49740000     -36.57800000     -71.95640000
S      -45.01990000     -32.31380000     -74.70190000
C      -46.45920000     -35.79540000     -70.61760000
H      -47.26760000     -35.18010000     -70.07880000
H      -46.01470000     -36.62070000     -69.99680000
C      -44.22680000     -31.77600000     -73.05710000
H      -44.97920000     -31.57930000     -72.32990000
H      -43.65890000     -30.83560000     -73.25130000
C      -43.19680000     -32.83010000     -72.68070000
H      -43.65270000     -33.84450000     -72.79510000
H      -42.32070000     -33.01500000     -73.32490000
C      -45.36830000     -34.89360000     -71.09880000
H      -45.82750000     -33.89110000     -71.49390000
H      -44.72870000     -35.24500000     -71.86740000
C      -44.49190000     -34.33540000     -69.95150000
C      -44.62820000     -34.71980000     -68.66510000
C      -43.34320000     -33.40870000     -70.11540000
H      -45.42760000     -35.31510000     -68.25100000
C      -42.79300000     -32.99480000     -68.92190000
C      -42.80810000     -32.65010000     -71.21950000
C      -41.89150000     -31.71440000     -70.81720000
S      -43.50600000     -33.84810000     -67.57540000
S      -41.46530000     -31.86990000     -69.12850000
H      -41.32350000     -31.12040000     -71.50410000
