40
Properties=species:S:1:pos:R:3 #=T CELL(abcABC):=T 1.889726e+02=T 90.00000=T Traj:=T positionsangstrom=T Step:=T 0=T Bead:=T pbc="F F F"
C      -46.98290000     -33.20600000     -73.16200000
C      -45.97760000     -33.97460000     -73.78010000
C      -45.79640000     -35.31190000     -73.25210000
C      -46.28300000     -35.70180000     -72.05520000
C      -47.10740000     -34.79850000     -71.33530000
C      -47.52750000     -33.62100000     -71.92130000
H      -47.33340000     -32.22710000     -73.54350000
H      -45.02050000     -35.93220000     -73.74960000
H      -47.46010000     -35.13310000     -70.34600000
H      -48.14140000     -32.93400000     -71.33280000
C      -45.84330000     -37.10890000     -71.54050000
H      -44.88000000     -37.33380000     -71.99900000
H      -46.55280000     -37.95570000     -71.89770000
C      -45.24520000     -33.49930000     -75.02810000
H      -44.38820000     -34.11610000     -75.29030000
H      -45.95390000     -33.35540000     -75.80860000
S      -45.67970000     -37.18250000     -69.68790000
S      -44.56080000     -31.74770000     -74.75190000
C      -44.11790000     -36.15950000     -69.32730000
H      -44.11960000     -36.01560000     -68.31050000
H      -43.30610000     -36.79290000     -69.48390000
C      -43.07510000     -31.98110000     -73.74980000
H      -42.64630000     -31.01070000     -73.84660000
H      -42.40380000     -32.71810000     -74.23370000
C      -43.27470000     -32.37410000     -72.36690000
H      -43.60620000     -33.40560000     -72.45740000
H      -42.29320000     -32.45270000     -71.85960000
C      -43.81320000     -34.87000000     -70.05010000
H      -43.78390000     -34.93950000     -71.17470000
H      -42.78400000     -34.69510000     -69.77900000
C      -44.60550000     -33.67270000     -69.64450000
C      -45.43110000     -33.84850000     -68.54850000
C      -44.63370000     -32.32570000     -70.23160000
H      -45.63840000     -34.73990000     -67.90610000
C      -45.44070000     -31.47300000     -69.48700000
C      -44.19330000     -31.70410000     -71.44680000
C      -44.68080000     -30.46270000     -71.59810000
S      -46.25890000     -32.25780000     -68.15350000
S      -45.63620000     -29.91930000     -70.29720000
H      -44.22800000     -29.84300000     -72.41350000
