40
Properties=species:S:1:pos:R:3 #=T CELL(abcABC):=T 1.889726e+02=T 90.00000=T Traj:=T positionsangstrom=T Step:=T 0=T Bead:=T pbc="F F F"
C      -43.91480000     -34.84480000     -75.06790000
C      -44.45220000     -35.58850000     -74.01220000
C      -45.81190000     -35.34990000     -73.74910000
C      -46.53820000     -34.38370000     -74.39760000
C      -45.98740000     -33.75320000     -75.56480000
C      -44.64800000     -33.94480000     -75.84780000
H      -42.85450000     -34.90750000     -75.33130000
H      -46.36310000     -35.96160000     -73.04850000
H      -46.66480000     -33.16540000     -76.15950000
H      -44.17470000     -33.47150000     -76.72430000
C      -47.95840000     -34.10940000     -74.07200000
H      -48.13200000     -34.89590000     -73.37720000
H      -48.53300000     -34.28530000     -74.95600000
C      -43.67460000     -36.62480000     -73.33190000
H      -43.86670000     -37.66950000     -73.67520000
H      -42.61590000     -36.45720000     -73.35870000
S      -48.32740000     -32.38380000     -73.54440000
S      -43.81520000     -36.74020000     -71.54300000
C      -46.99900000     -31.80210000     -72.43320000
H      -46.00130000     -31.80090000     -72.95910000
H      -47.27610000     -30.71990000     -72.29010000
C      -44.18310000     -35.00990000     -71.00400000
H      -44.85010000     -34.44150000     -71.71720000
H      -43.26650000     -34.42740000     -70.88320000
C      -44.83780000     -34.98890000     -69.55420000
H      -45.88140000     -35.24730000     -69.67060000
H      -44.36180000     -35.82060000     -68.98850000
C      -46.98920000     -32.46560000     -71.06980000
H      -46.56550000     -33.46690000     -71.15530000
H      -48.00400000     -32.44280000     -70.63330000
C      -46.05160000     -31.72190000     -70.02100000
C      -46.19610000     -30.39810000     -69.82790000
C      -45.09510000     -32.34230000     -69.19010000
H      -46.91720000     -29.80090000     -70.35570000
C      -44.58110000     -31.44780000     -68.20580000
C      -44.64460000     -33.70460000     -68.82820000
C      -43.76620000     -33.75740000     -67.74700000
S      -45.08170000     -29.81050000     -68.56860000
S      -43.57570000     -32.17970000     -66.98970000
H      -43.29600000     -34.67800000     -67.22160000
