40
Properties=species:S:1:pos:R:3 #=T CELL(abcABC):=T 1.889726e+02=T 90.00000=T Traj:=T positionsangstrom=T Step:=T 0=T Bead:=T pbc="F F F"
C      -46.73720000     -33.09630000     -73.01400000
C      -45.80370000     -33.96670000     -73.61110000
C      -45.78660000     -35.31030000     -73.21170000
C      -46.55170000     -35.70210000     -72.09300000
C      -47.50780000     -34.84100000     -71.54410000
C      -47.68040000     -33.49790000     -72.01290000
H      -46.92700000     -32.06500000     -73.35960000
H      -45.17180000     -35.99280000     -73.75940000
H      -48.00200000     -35.14300000     -70.68350000
H      -48.37540000     -32.71210000     -71.59110000
C      -46.29480000     -36.96810000     -71.44450000
H      -45.76550000     -37.60440000     -72.05690000
H      -47.24490000     -37.48220000     -71.25720000
C      -44.97430000     -33.50710000     -74.83660000
H      -44.09100000     -34.06250000     -75.04490000
H      -45.64280000     -33.47230000     -75.74940000
S      -45.48920000     -36.92180000     -69.73270000
S      -44.45340000     -31.68460000     -74.75760000
C      -43.78400000     -36.20070000     -69.89410000
H      -43.50730000     -36.20820000     -68.87050000
H      -43.19170000     -36.88910000     -70.39430000
C      -42.92560000     -31.51570000     -73.71790000
H      -42.64030000     -30.43260000     -73.68150000
H      -42.07700000     -32.05160000     -74.16700000
C      -42.90450000     -31.95320000     -72.20140000
H      -42.83900000     -33.09980000     -72.17320000
H      -41.94800000     -31.63030000     -71.81950000
C      -43.71350000     -34.81540000     -70.55930000
H      -44.21710000     -34.88060000     -71.54370000
H      -42.64420000     -34.50220000     -70.61110000
C      -44.50520000     -33.75850000     -69.79810000
C      -45.24580000     -34.03660000     -68.65010000
C      -44.66920000     -32.45090000     -70.22790000
H      -45.17140000     -34.75420000     -67.87930000
C      -45.71100000     -31.82570000     -69.55280000
C      -44.14080000     -31.60020000     -71.30930000
C      -44.70080000     -30.35900000     -71.25710000
S      -46.31800000     -32.67570000     -68.16750000
S      -46.04040000     -30.17870000     -70.04060000
H      -44.50080000     -29.56570000     -72.00760000
