40
Properties=species:S:1:pos:R:3 #=T CELL(abcABC):=T 1.889726e+02=T 90.00000=T Traj:=T positionsangstrom=T Step:=T 0=T Bead:=T pbc="F F F"
C      -47.59640000     -33.18700000     -73.70650000
C      -46.44220000     -33.79500000     -74.10010000
C      -46.01290000     -34.97480000     -73.51230000
C      -46.68690000     -35.43000000     -72.41540000
C      -47.82530000     -34.79360000     -71.91180000
C      -48.26510000     -33.65460000     -72.60180000
H      -47.74390000     -32.25120000     -74.16960000
H      -45.17820000     -35.57160000     -73.88960000
H      -48.24940000     -35.14700000     -70.98650000
H      -49.21470000     -33.24420000     -72.32380000
C      -46.23640000     -36.70930000     -71.83100000
H      -45.26260000     -36.98430000     -72.20770000
H      -46.93610000     -37.46140000     -72.19790000
C      -45.61780000     -33.15440000     -75.16900000
H      -44.93510000     -33.93090000     -75.49890000
H      -46.19670000     -32.86650000     -76.00600000
S      -46.31960000     -36.91700000     -69.95270000
S      -44.74260000     -31.69120000     -74.43870000
C      -44.52140000     -36.51520000     -69.41660000
H      -44.41280000     -36.63590000     -68.31950000
H      -43.88080000     -37.19520000     -69.81880000
C      -43.19680000     -32.41670000     -73.78720000
H      -42.45080000     -31.66460000     -73.80270000
H      -42.90320000     -33.28590000     -74.41010000
C      -43.33990000     -33.07900000     -72.37900000
H      -44.06850000     -33.92650000     -72.40660000
H      -42.40470000     -33.51880000     -72.15680000
C      -44.09660000     -35.14020000     -69.88930000
H      -43.99670000     -35.12510000     -70.97790000
H      -42.96840000     -35.19550000     -69.71000000
C      -44.64800000     -33.81250000     -69.36630000
C      -45.20180000     -33.68410000     -68.13760000
C      -44.48610000     -32.58540000     -70.09800000
H      -45.65580000     -34.47120000     -67.58320000
C      -44.83940000     -31.50430000     -69.29450000
C      -43.81530000     -32.07140000     -71.37210000
C      -43.72280000     -30.71700000     -71.40190000
S      -45.66190000     -32.01400000     -67.80420000
S      -44.30380000     -29.96760000     -69.89430000
H      -43.27710000     -30.10570000     -72.20970000
