40
Properties=species:S:1:pos:R:3 #=T CELL(abcABC):=T 1.889726e+02=T 90.00000=T Traj:=T positionsangstrom=T Step:=T 0=T Bead:=T pbc="F F F"
C      -47.50090000     -32.85660000     -73.29880000
C      -46.50660000     -33.62670000     -73.81320000
C      -46.30800000     -34.95020000     -73.47930000
C      -47.09270000     -35.48440000     -72.41910000
C      -48.18450000     -34.71370000     -71.90150000
C      -48.30230000     -33.38350000     -72.30140000
H      -47.63480000     -31.84790000     -73.57150000
H      -45.45450000     -35.54020000     -73.88360000
H      -48.76640000     -35.22170000     -71.09610000
H      -49.22800000     -32.86320000     -71.95170000
C      -46.77790000     -36.85550000     -71.79380000
H      -45.93640000     -37.35730000     -72.29450000
H      -47.63810000     -37.46020000     -72.09310000
C      -45.55470000     -33.06330000     -74.87260000
H      -44.77120000     -33.84110000     -75.02240000
H      -46.16730000     -32.87090000     -75.77290000
S      -46.75640000     -36.79720000     -69.94730000
S      -44.47700000     -31.54370000     -74.52900000
C      -44.93920000     -36.51840000     -69.65000000
H      -44.81200000     -36.50350000     -68.58610000
H      -44.33370000     -37.33700000     -69.97330000
C      -42.99560000     -32.39710000     -73.78960000
H      -42.24730000     -31.62160000     -73.60450000
H      -42.55600000     -33.00540000     -74.55630000
C      -43.38280000     -33.19690000     -72.51180000
H      -44.16960000     -33.93710000     -72.70840000
H      -42.52750000     -33.80270000     -72.22060000
C      -44.36890000     -35.20890000     -70.26530000
H      -44.83570000     -35.03370000     -71.31270000
H      -43.31410000     -35.36680000     -70.56440000
C      -44.59660000     -33.88580000     -69.52440000
C      -44.90840000     -33.80930000     -68.20030000
C      -44.34130000     -32.62750000     -70.16850000
H      -45.22330000     -34.58060000     -67.47160000
C      -44.57060000     -31.62540000     -69.22800000
C      -43.75140000     -32.25790000     -71.40820000
C      -43.69090000     -30.84940000     -71.51250000
S      -45.01480000     -32.17680000     -67.72490000
S      -44.22040000     -30.04520000     -69.97400000
H      -43.34550000     -30.22250000     -72.27880000
