40
Properties=species:S:1:pos:R:3 #=T CELL(abcABC):=T 1.889726e+02=T 90.00000=T Traj:=T positionsangstrom=T Step:=T 0=T Bead:=T pbc="F F F"
C      -47.59050000     -32.99000000     -73.39210000
C      -46.45170000     -33.61950000     -73.84180000
C      -46.04520000     -34.81890000     -73.32970000
C      -46.91120000     -35.50020000     -72.41930000
C      -48.07240000     -34.84670000     -71.97690000
C      -48.38000000     -33.55540000     -72.38790000
H      -47.86160000     -32.01470000     -73.81470000
H      -45.24180000     -35.43580000     -73.73980000
H      -48.78250000     -35.37470000     -71.28400000
H      -49.27650000     -33.09550000     -71.89140000
C      -46.57910000     -36.85530000     -71.94850000
H      -45.63250000     -37.18890000     -72.37000000
H      -47.33120000     -37.62470000     -72.12130000
C      -45.74760000     -33.03120000     -75.02090000
H      -45.21130000     -33.70510000     -75.64540000
H      -46.54520000     -32.66580000     -75.66830000
S      -46.63670000     -37.01780000     -70.04810000
S      -44.52710000     -31.61410000     -74.61790000
C      -44.93500000     -36.51670000     -69.48820000
H      -45.02220000     -36.61590000     -68.44620000
H      -44.37310000     -37.37470000     -69.94070000
C      -43.03080000     -32.48210000     -73.81220000
H      -42.25760000     -31.69940000     -73.66470000
H      -42.76460000     -33.21120000     -74.57770000
C      -43.27000000     -33.09420000     -72.40650000
H      -43.84280000     -33.99650000     -72.35540000
H      -42.29510000     -33.43360000     -71.90660000
C      -44.36600000     -35.21130000     -70.03950000
H      -44.76350000     -35.23260000     -71.07520000
H      -43.28160000     -35.27250000     -70.17560000
C      -44.61550000     -33.87820000     -69.46830000
C      -45.04490000     -33.69390000     -68.21840000
C      -44.30690000     -32.61590000     -70.12150000
H      -45.07040000     -34.51480000     -67.46630000
C      -44.66020000     -31.56320000     -69.25470000
C      -43.70810000     -32.12330000     -71.39260000
C      -43.74030000     -30.73740000     -71.44660000
S      -45.18330000     -32.03210000     -67.70230000
S      -44.24540000     -29.96000000     -69.89320000
H      -43.25510000     -30.12280000     -72.13200000
