40
Properties=species:S:1:pos:R:3 #=T CELL(abcABC):=T 1.889726e+02=T 90.00000=T Traj:=T positionsangstrom=T Step:=T 0=T Bead:=T pbc="F F F"
C      -48.65380000     -31.44150000     -71.90460000
C      -47.97320000     -32.27230000     -72.84220000
C      -48.02840000     -33.65030000     -72.71340000
C      -48.55180000     -34.31630000     -71.61440000
C      -49.23230000     -33.46400000     -70.66400000
C      -49.20900000     -32.07750000     -70.85300000
H      -48.79060000     -30.36190000     -72.11920000
H      -47.59940000     -34.26950000     -73.49750000
H      -49.62470000     -33.87460000     -69.76430000
H      -49.87270000     -31.42410000     -70.17210000
C      -48.51650000     -35.90180000     -71.54560000
H      -49.43540000     -36.28780000     -72.07320000
H      -48.43020000     -36.24600000     -70.46450000
C      -47.29530000     -31.63870000     -74.11660000
H      -47.97400000     -31.93070000     -74.97580000
H      -47.41250000     -30.55650000     -74.03740000
S      -46.95110000     -36.54200000     -72.32090000
S      -45.59910000     -32.21900000     -74.45260000
C      -45.59520000     -36.11560000     -71.08150000
H      -46.04390000     -36.25470000     -69.99870000
H      -44.81640000     -36.82340000     -71.23600000
C      -44.75490000     -31.72930000     -72.95220000
H      -45.27380000     -32.13380000     -72.05700000
H      -44.84160000     -30.67550000     -72.75430000
C      -43.25870000     -32.27170000     -72.85250000
H      -43.25400000     -33.27150000     -73.22400000
H      -42.58310000     -31.81650000     -73.58000000
C      -45.08150000     -34.71480000     -71.38720000
H      -45.83300000     -33.95830000     -71.51730000
H      -44.56480000     -34.68810000     -72.30800000
C      -44.19500000     -34.26320000     -70.24140000
C      -44.32530000     -34.66500000     -68.95400000
C      -43.13370000     -33.27420000     -70.44970000
H      -44.97960000     -35.39590000     -68.54300000
C      -42.52000000     -33.02620000     -69.22890000
C      -42.77020000     -32.29590000     -71.48000000
C      -41.85530000     -31.43310000     -70.97460000
S      -43.22650000     -33.92800000     -67.88230000
S      -41.38310000     -31.71410000     -69.28090000
H      -41.37900000     -30.64700000     -71.63630000
