40
Properties=species:S:1:pos:R:3 #=T CELL(abcABC):=T 1.889726e+02=T 90.00000=T Traj:=T positionsangstrom=T Step:=T 0=T Bead:=T pbc="F F F"
C      -48.07350000     -31.53540000     -72.53500000
C      -47.78630000     -32.46460000     -73.54230000
C      -47.95950000     -33.85830000     -73.28280000
C      -48.58690000     -34.27950000     -72.11120000
C      -48.89610000     -33.32150000     -71.09670000
C      -48.54660000     -31.97270000     -71.29280000
H      -47.94530000     -30.46710000     -72.75170000
H      -47.76900000     -34.58800000     -74.06040000
H      -49.27420000     -33.62210000     -70.18490000
H      -48.72010000     -31.28780000     -70.43580000
C      -48.80970000     -35.71780000     -71.96550000
H      -49.08930000     -36.18260000     -72.88840000
H      -49.54790000     -36.08900000     -71.33520000
C      -47.20160000     -31.93600000     -74.71940000
H      -47.48220000     -32.55110000     -75.62420000
H      -47.44130000     -30.91260000     -74.94400000
S      -47.28790000     -36.53090000     -71.73600000
S      -45.27450000     -32.03900000     -74.75410000
C      -46.43210000     -35.60340000     -70.37300000
H      -47.12820000     -34.97190000     -69.86680000
H      -46.02870000     -36.24810000     -69.60590000
C      -44.60190000     -31.73300000     -73.01920000
H      -45.45610000     -31.82400000     -72.28890000
H      -44.16970000     -30.71650000     -72.89520000
C      -43.45950000     -32.70980000     -72.64840000
H      -43.71220000     -33.78310000     -72.72850000
H      -42.63580000     -32.56090000     -73.30130000
C      -45.32680000     -34.65790000     -70.96100000
H      -45.79440000     -33.74360000     -71.19630000
H      -44.84160000     -35.03390000     -71.83610000
C      -44.24160000     -34.37640000     -69.88090000
C      -44.21350000     -34.83150000     -68.55770000
C      -43.32470000     -33.29670000     -70.11570000
H      -44.56280000     -35.76090000     -68.24910000
C      -42.64970000     -32.92930000     -68.96770000
C      -42.98300000     -32.43680000     -71.23770000
C      -42.05080000     -31.44850000     -70.94950000
S      -42.97140000     -33.96520000     -67.60680000
S      -41.53940000     -31.64150000     -69.25670000
H      -41.55790000     -30.83500000     -71.62300000
