40
Properties=species:S:1:pos:R:3 #=T CELL(abcABC):=T 1.889726e+02=T 90.00000=T Traj:=T positionsangstrom=T Step:=T 0=T Bead:=T pbc="F F F"
C      -47.53400000     -33.25010000     -73.52940000
C      -46.35560000     -33.82530000     -74.05690000
C      -45.88010000     -35.04480000     -73.51480000
C      -46.60480000     -35.61320000     -72.45220000
C      -47.77150000     -34.99580000     -71.95630000
C      -48.31850000     -33.79850000     -72.50300000
H      -47.76490000     -32.22420000     -73.84450000
H      -44.98640000     -35.56360000     -73.96100000
H      -48.16120000     -35.52810000     -71.09540000
H      -49.19960000     -33.29980000     -72.11590000
C      -46.16170000     -36.82060000     -71.69690000
H      -45.20350000     -37.19620000     -71.96360000
H      -46.92890000     -37.58420000     -71.91900000
C      -45.60600000     -33.10950000     -75.18300000
H      -44.90390000     -33.85850000     -75.64300000
H      -46.19940000     -32.70500000     -76.04800000
S      -46.20980000     -36.70250000     -69.80790000
S      -44.69450000     -31.62940000     -74.57510000
C      -44.41790000     -36.35880000     -69.36190000
H      -44.30440000     -36.33970000     -68.19770000
H      -43.92470000     -37.26490000     -69.84400000
C      -43.14830000     -32.31900000     -73.71850000
H      -42.54670000     -31.39070000     -73.59040000
H      -42.59310000     -32.90500000     -74.47700000
C      -43.27510000     -32.96310000     -72.36560000
H      -44.05000000     -33.80630000     -72.38830000
H      -42.34310000     -33.49960000     -72.06150000
C      -44.02460000     -35.08670000     -70.07180000
H      -44.35900000     -35.18140000     -71.12510000
H      -42.95160000     -34.92280000     -70.08640000
C      -44.66220000     -33.83950000     -69.49960000
C      -45.41520000     -33.80090000     -68.34950000
C      -44.32990000     -32.56420000     -70.04890000
H      -45.59840000     -34.65700000     -67.73990000
C      -44.93260000     -31.55140000     -69.29960000
C      -43.76900000     -32.01720000     -71.26090000
C      -43.77560000     -30.65500000     -71.29780000
S      -45.71400000     -32.11510000     -67.86730000
S      -44.63320000     -30.01620000     -69.93840000
H      -43.37890000     -30.04480000     -72.09420000
