40
Properties=species:S:1:pos:R:3 #=T CELL(abcABC):=T 1.889726e+02=T 90.00000=T Traj:=T positionsangstrom=T Step:=T 0=T Bead:=T pbc="F F F"
C      -46.69880000     -31.41970000     -72.56320000
C      -46.46240000     -32.43110000     -73.49620000
C      -46.93950000     -33.72210000     -73.23180000
C      -47.62960000     -33.98730000     -72.00220000
C      -47.78010000     -32.93150000     -71.03000000
C      -47.23810000     -31.72030000     -71.28790000
H      -46.30850000     -30.39420000     -72.64880000
H      -46.90870000     -34.44010000     -74.07960000
H      -48.22780000     -33.10870000     -70.04810000
H      -47.49810000     -30.89290000     -70.60000000
C      -48.36900000     -35.27670000     -71.76210000
H      -48.27240000     -35.94610000     -72.64140000
H      -49.48860000     -35.03470000     -71.66360000
C      -45.72180000     -32.13950000     -74.79970000
H      -45.87510000     -32.95430000     -75.50420000
H      -46.14140000     -31.22520000     -75.20210000
S      -47.99590000     -36.04790000     -70.17150000
S      -43.92920000     -31.83500000     -74.52530000
C      -46.30160000     -36.84320000     -70.27070000
H      -46.08540000     -37.14460000     -69.24840000
H      -46.29700000     -37.75790000     -70.87240000
C      -43.01350000     -33.43570000     -74.13990000
H      -41.97290000     -33.11580000     -74.22230000
H      -43.13590000     -34.24070000     -74.91420000
C      -43.46410000     -34.01490000     -72.80320000
H      -44.50950000     -34.38570000     -72.85470000
H      -42.79290000     -34.81100000     -72.49430000
C      -45.23270000     -35.85310000     -70.76310000
H      -45.42480000     -35.44950000     -71.71920000
H      -44.31640000     -36.35640000     -70.83720000
C      -44.92600000     -34.59410000     -69.94500000
C      -45.50630000     -34.37460000     -68.69720000
C      -44.09350000     -33.47010000     -70.32700000
H      -46.27640000     -34.92320000     -68.17030000
C      -43.93990000     -32.49340000     -69.28340000
C      -43.40660000     -33.12320000     -71.53930000
C      -42.64160000     -31.98780000     -71.37400000
S      -44.97540000     -32.86080000     -67.92560000
S      -42.70330000     -31.27140000     -69.83300000
H      -41.97370000     -31.64500000     -72.12730000
