40
Properties=species:S:1:pos:R:3 #=T CELL(abcABC):=T 1.889726e+02=T 90.00000=T Traj:=T positionsangstrom=T Step:=T 0=T Bead:=T pbc="F F F"
C      -46.70960000     -32.29370000     -73.04680000
C      -46.28200000     -33.38540000     -73.78400000
C      -46.58840000     -34.71370000     -73.35670000
C      -47.43930000     -34.80990000     -72.21280000
C      -47.95910000     -33.66700000     -71.54040000
C      -47.58880000     -32.38550000     -71.95800000
H      -46.40940000     -31.38230000     -73.62740000
H      -46.23260000     -35.52650000     -73.90990000
H      -48.65070000     -33.86440000     -70.73210000
H      -47.87850000     -31.46490000     -71.46950000
C      -47.82740000     -36.10240000     -71.61280000
H      -47.48780000     -37.00180000     -72.24020000
H      -48.94310000     -36.22470000     -71.57860000
C      -45.42280000     -33.17860000     -74.94680000
H      -44.72970000     -33.99330000     -75.15340000
H      -46.00620000     -32.85670000     -75.82360000
S      -47.20960000     -36.34330000     -69.93350000
S      -44.18550000     -31.71290000     -74.70410000
C      -45.44550000     -36.74740000     -70.21500000
H      -45.03070000     -37.37580000     -69.53890000
H      -45.43830000     -37.44040000     -71.07380000
C      -42.69350000     -32.45720000     -73.82790000
H      -42.02110000     -31.63650000     -73.63650000
H      -42.24420000     -33.06300000     -74.59320000
C      -43.02600000     -33.16190000     -72.55730000
H      -43.53090000     -34.09330000     -72.83470000
H      -42.07530000     -33.49650000     -72.10980000
C      -44.64710000     -35.53380000     -70.61010000
H      -45.08580000     -35.29940000     -71.64750000
H      -43.61220000     -35.74470000     -70.73330000
C      -44.67830000     -34.35130000     -69.71180000
C      -45.04060000     -34.35890000     -68.41540000
C      -44.20660000     -33.05350000     -70.21280000
H      -45.58570000     -35.19530000     -67.94210000
C      -44.38080000     -32.03500000     -69.19150000
C      -43.67470000     -32.47170000     -71.44210000
C      -43.67610000     -31.11080000     -71.35860000
S      -45.00540000     -32.73010000     -67.67900000
S      -44.21370000     -30.40610000     -69.85470000
H      -43.16390000     -30.51220000     -72.08100000
