40
Properties=species:S:1:pos:R:3 #=T CELL(abcABC):=T 1.889726e+02=T 90.00000=T Traj:=T positionsangstrom=T Step:=T 0=T Bead:=T pbc="F F F"
C      -46.10460000     -31.29540000     -72.60490000
C      -46.28190000     -32.32130000     -73.55150000
C      -47.09640000     -33.40480000     -73.30000000
C      -47.75250000     -33.39270000     -72.06930000
C      -47.54200000     -32.43620000     -71.12460000
C      -46.78170000     -31.26740000     -71.42830000
H      -45.47840000     -30.41710000     -72.85360000
H      -47.30310000     -34.20130000     -74.05630000
H      -48.06760000     -32.45270000     -70.15440000
H      -46.65880000     -30.50230000     -70.72820000
C      -48.74860000     -34.46580000     -71.82040000
H      -48.61190000     -35.22990000     -72.65910000
H      -49.76680000     -34.13780000     -71.67270000
C      -45.48180000     -32.17360000     -74.82820000
H      -45.65130000     -33.00820000     -75.49150000
H      -45.82930000     -31.29250000     -75.34320000
S      -48.46450000     -35.41880000     -70.26900000
S      -43.67600000     -31.86560000     -74.59660000
C      -47.13870000     -36.51240000     -70.72010000
H      -47.07000000     -37.34990000     -70.01180000
H      -47.41870000     -36.92020000     -71.70880000
C      -42.87540000     -33.43600000     -74.04960000
H      -41.85590000     -33.15390000     -73.94610000
H      -42.87460000     -34.19220000     -74.86530000
C      -43.50910000     -34.07180000     -72.81630000
H      -44.52990000     -34.29900000     -73.05250000
H      -43.11320000     -35.03300000     -72.62330000
C      -45.75960000     -35.94040000     -70.95810000
H      -45.64830000     -35.50390000     -71.95930000
H      -44.96500000     -36.66600000     -71.07610000
C      -45.16770000     -34.78330000     -70.04510000
C      -45.43040000     -34.78630000     -68.65110000
C      -44.23570000     -33.74400000     -70.37250000
H      -46.22280000     -35.38680000     -68.20740000
C      -43.84340000     -33.00980000     -69.20990000
C      -43.44690000     -33.29810000     -71.50940000
C      -42.57460000     -32.26530000     -71.15770000
S      -44.59910000     -33.55920000     -67.72780000
S      -42.66190000     -31.70040000     -69.44680000
H      -42.04160000     -31.71620000     -71.91310000
