40
Properties=species:S:1:pos:R:3 #=T CELL(abcABC):=T 1.889726e+02=T 90.00000=T Traj:=T positionsangstrom=T Step:=T 0=T Bead:=T pbc="F F F"
C      -46.45080000     -31.38360000     -72.56200000
C      -46.42240000     -32.37150000     -73.53020000
C      -47.17010000     -33.58760000     -73.29460000
C      -47.76110000     -33.81680000     -72.04560000
C      -47.81420000     -32.74320000     -71.10490000
C      -47.25570000     -31.53480000     -71.43190000
H      -45.89040000     -30.40910000     -72.70980000
H      -47.19400000     -34.39430000     -74.04010000
H      -48.26140000     -32.78960000     -70.13640000
H      -47.31410000     -30.71350000     -70.67700000
C      -48.35440000     -35.23530000     -71.85670000
H      -47.99970000     -35.78760000     -72.70190000
H      -49.42490000     -35.26410000     -72.04640000
C      -45.67590000     -32.20480000     -74.81160000
H      -45.75910000     -33.08430000     -75.50100000
H      -45.99430000     -31.34890000     -75.44810000
S      -48.18390000     -36.10890000     -70.24570000
S      -43.84270000     -31.77460000     -74.63150000
C      -46.40600000     -36.73940000     -70.22800000
H      -46.07410000     -37.02740000     -69.21760000
H      -46.38080000     -37.59510000     -70.89600000
C      -43.07550000     -33.42800000     -74.16650000
H      -41.99480000     -33.26820000     -74.17370000
H      -43.24440000     -34.08620000     -74.99270000
C      -43.56290000     -33.98450000     -72.77740000
H      -44.59020000     -34.16510000     -73.03590000
H      -43.16210000     -34.99350000     -72.67320000
C      -45.35560000     -35.71900000     -70.76620000
H      -45.70300000     -35.46620000     -71.81100000
H      -44.52340000     -36.45310000     -70.97250000
C      -45.01020000     -34.56880000     -69.92360000
C      -45.50250000     -34.35190000     -68.61670000
C      -44.07480000     -33.56630000     -70.31250000
H      -46.33300000     -34.70910000     -68.09320000
C      -43.75670000     -32.70940000     -69.19980000
C      -43.43080000     -33.16850000     -71.51000000
C      -42.56720000     -32.11930000     -71.34170000
S      -44.74510000     -32.99130000     -67.80090000
S      -42.71670000     -31.37860000     -69.67340000
H      -41.97470000     -31.66980000     -72.07670000
