40
Properties=species:S:1:pos:R:3 #=T CELL(abcABC):=T 1.889726e+02=T 90.00000=T Traj:=T positionsangstrom=T Step:=T 0=T Bead:=T pbc="F F F"
C      -45.51170000     -31.04710000     -72.80140000
C      -45.73850000     -32.19230000     -73.61210000
C      -46.79020000     -33.07580000     -73.35550000
C      -47.62470000     -32.74960000     -72.33670000
C      -47.41230000     -31.65190000     -71.47050000
C      -46.35840000     -30.79150000     -71.70760000
H      -44.74940000     -30.29400000     -73.07820000
H      -46.97320000     -33.84210000     -74.08090000
H      -48.10840000     -31.47120000     -70.69770000
H      -46.24710000     -29.96440000     -70.99050000
C      -48.83820000     -33.66080000     -72.11460000
H      -48.78650000     -34.45490000     -72.83630000
H      -49.77520000     -33.17520000     -72.07910000
C      -44.77430000     -32.45350000     -74.72880000
H      -44.95610000     -33.34770000     -75.36180000
H      -44.78930000     -31.58270000     -75.43560000
S      -48.83590000     -34.33820000     -70.47320000
S      -42.95520000     -32.50000000     -74.36450000
C      -47.91610000     -35.97200000     -70.61450000
H      -48.18420000     -36.51940000     -69.69960000
H      -48.31910000     -36.61480000     -71.37200000
C      -42.66950000     -34.22590000     -73.78000000
H      -41.60590000     -34.18170000     -73.50440000
H      -42.80540000     -34.81730000     -74.70530000
C      -43.62860000     -34.74540000     -72.64830000
H      -44.71870000     -34.48370000     -72.86760000
H      -43.64790000     -35.86710000     -72.58230000
C      -46.40310000     -35.70730000     -70.92820000
H      -46.43940000     -35.16800000     -71.91220000
H      -45.98030000     -36.71180000     -71.08580000
C      -45.65060000     -34.80380000     -69.94200000
C      -46.15370000     -34.52130000     -68.68450000
C      -44.36340000     -34.16650000     -70.15830000
H      -47.14590000     -34.94290000     -68.30610000
C      -44.03640000     -33.30070000     -69.07920000
C      -43.36060000     -34.11800000     -71.25540000
C      -42.35150000     -33.22230000     -70.96900000
S      -45.16820000     -33.35490000     -67.80530000
S      -42.45860000     -32.45710000     -69.41130000
H      -41.60670000     -33.01590000     -71.64130000
