40
Properties=species:S:1:pos:R:3 #=T CELL(abcABC):=T 1.889726e+02=T 90.00000=T Traj:=T positionsangstrom=T Step:=T 0=T Bead:=T pbc="F F F"
C      -45.35740000     -31.10080000     -72.67450000
C      -45.62890000     -32.13650000     -73.52430000
C      -46.72950000     -33.03050000     -73.34120000
C      -47.57420000     -32.74470000     -72.24870000
C      -47.25410000     -31.70670000     -71.36010000
C      -46.15080000     -30.90910000     -71.53590000
H      -44.49790000     -30.55870000     -72.89030000
H      -46.99700000     -33.85000000     -74.03170000
H      -47.90690000     -31.51770000     -70.50220000
H      -45.98130000     -30.02280000     -70.95450000
C      -48.80620000     -33.56880000     -72.11900000
H      -48.87520000     -34.35450000     -72.85950000
H      -49.72800000     -32.93590000     -72.25560000
C      -44.68580000     -32.62000000     -74.63920000
H      -45.06330000     -33.60990000     -74.97310000
H      -44.84490000     -32.01500000     -75.54730000
S      -49.04740000     -34.40490000     -70.52000000
S      -42.89120000     -32.59140000     -74.31050000
C      -47.82450000     -35.79020000     -70.68270000
H      -47.90560000     -36.35370000     -69.75670000
H      -48.23140000     -36.48100000     -71.43860000
C      -42.63670000     -34.36060000     -73.70260000
H      -41.58810000     -34.57270000     -73.48410000
H      -42.74490000     -35.10700000     -74.55070000
C      -43.64710000     -34.73450000     -72.67050000
H      -44.66430000     -34.60740000     -72.93670000
H      -43.37560000     -35.82960000     -72.45850000
C      -46.35950000     -35.60700000     -71.04130000
H      -46.17670000     -35.35860000     -72.07320000
H      -45.87820000     -36.53630000     -70.97560000
C      -45.69780000     -34.68430000     -70.05590000
C      -46.21300000     -34.50540000     -68.80150000
C      -44.44740000     -34.00000000     -70.26550000
H      -47.12170000     -34.87060000     -68.39060000
C      -44.06480000     -33.23010000     -69.20410000
C      -43.46720000     -34.00240000     -71.33710000
C      -42.43400000     -33.17690000     -71.02540000
S      -45.19810000     -33.31680000     -67.89160000
S      -42.56110000     -32.48940000     -69.33530000
H      -41.53420000     -32.95390000     -71.54770000
