40
Properties=species:S:1:pos:R:3 #=T CELL(abcABC):=T 1.889726e+02=T 90.00000=T Traj:=T positionsangstrom=T Step:=T 0=T Bead:=T pbc="F F F"
C      -45.50790000     -31.13960000     -72.67480000
C      -45.68940000     -32.19720000     -73.59340000
C      -46.79220000     -33.01430000     -73.42010000
C      -47.68510000     -32.91060000     -72.34440000
C      -47.45080000     -31.92290000     -71.39700000
C      -46.44120000     -30.97280000     -71.62060000
H      -44.71070000     -30.39680000     -72.73480000
H      -47.11250000     -33.73700000     -74.23450000
H      -48.08300000     -31.85590000     -70.50150000
H      -46.34920000     -30.08180000     -70.99340000
C      -48.89940000     -33.75050000     -72.07250000
H      -49.03470000     -34.53330000     -72.79150000
H      -49.75810000     -33.05460000     -72.18290000
C      -44.75940000     -32.37040000     -74.82120000
H      -45.06610000     -33.36480000     -75.20560000
H      -44.81540000     -31.64990000     -75.64620000
S      -49.01980000     -34.52140000     -70.42890000
S      -43.00890000     -32.43840000     -74.22660000
C      -47.77510000     -35.88790000     -70.60780000
H      -47.75040000     -36.32020000     -69.64360000
H      -48.30000000     -36.56980000     -71.26730000
C      -42.84720000     -34.28160000     -73.79720000
H      -41.82160000     -34.34680000     -73.40020000
H      -42.97510000     -34.97700000     -74.58730000
C      -43.78440000     -34.62490000     -72.67930000
H      -44.82510000     -34.48880000     -72.95830000
H      -43.72790000     -35.73760000     -72.53970000
C      -46.38660000     -35.46310000     -70.99340000
H      -46.30550000     -34.90060000     -71.91270000
H      -45.78110000     -36.45420000     -71.13440000
C      -45.63270000     -34.67820000     -69.93630000
C      -45.92880000     -34.58430000     -68.62030000
C      -44.40000000     -33.90750000     -70.22330000
H      -46.71370000     -35.01790000     -68.05740000
C      -43.90010000     -33.16170000     -69.14950000
C      -43.55040000     -33.90260000     -71.40700000
C      -42.45860000     -33.06560000     -71.18930000
S      -44.85890000     -33.50620000     -67.75000000
S      -42.41690000     -32.39570000     -69.53020000
H      -41.64920000     -33.02910000     -71.91850000
