40
Properties=species:S:1:pos:R:3 #=T CELL(abcABC):=T 1.889726e+02=T 90.00000=T Traj:=T positionsangstrom=T Step:=T 0=T Bead:=T pbc="F F F"
C      -48.27510000     -34.68920000     -69.51090000
C      -48.00930000     -35.50900000     -70.61520000
C      -46.85810000     -36.25950000     -70.65320000
C      -45.99280000     -36.36990000     -69.55400000
C      -46.32020000     -35.58410000     -68.41030000
C      -47.41150000     -34.66330000     -68.44090000
H      -49.03800000     -33.92510000     -69.63450000
H      -46.69120000     -36.82660000     -71.61600000
H      -45.71210000     -35.73900000     -67.50110000
H      -47.79130000     -34.00070000     -67.66680000
C      -44.79220000     -37.26910000     -69.56950000
H      -45.02260000     -38.22110000     -69.92950000
H      -44.29960000     -37.47950000     -68.58260000
C      -48.94250000     -35.32940000     -71.82910000
H      -49.27390000     -36.33550000     -72.19820000
H      -49.86860000     -34.79090000     -71.55010000
S      -43.53650000     -36.69700000     -70.79130000
S      -48.23690000     -34.54040000     -73.29230000
C      -43.16220000     -34.92190000     -70.35510000
H      -43.42020000     -34.80700000     -69.30120000
H      -42.02850000     -34.84420000     -70.27710000
C      -47.32030000     -32.98100000     -72.52260000
H      -46.94990000     -33.30350000     -71.48930000
H      -48.10100000     -32.10880000     -72.39060000
C      -46.06230000     -32.65760000     -73.45010000
H      -45.40270000     -33.55570000     -73.41300000
H      -46.29360000     -32.67850000     -74.54160000
C      -43.81030000     -33.91940000     -71.26450000
H      -44.87360000     -34.08820000     -71.03190000
H      -43.69550000     -34.31150000     -72.30860000
C      -43.52750000     -32.45660000     -71.19310000
C      -42.59710000     -31.87240000     -70.32450000
C      -44.17480000     -31.43650000     -72.00260000
H      -41.95960000     -32.31540000     -69.55230000
C      -43.70390000     -30.17280000     -71.69490000
C      -45.18230000     -31.44750000     -73.05690000
C      -45.26140000     -30.25230000     -73.66370000
S      -42.65390000     -30.10530000     -70.32830000
S      -44.25970000     -29.01330000     -72.94550000
H      -45.96130000     -29.93170000     -74.43550000
