40
Properties=species:S:1:pos:R:3 #=T CELL(abcABC):=T 1.889726e+02=T 90.00000=T Traj:=T positionsangstrom=T Step:=T 0=T Bead:=T pbc="F F F"
C      -48.31610000     -34.59240000     -69.31840000
C      -48.15280000     -35.39600000     -70.45830000
C      -47.08970000     -36.28670000     -70.57810000
C      -46.12970000     -36.40810000     -69.58060000
C      -46.28070000     -35.66240000     -68.44090000
C      -47.37890000     -34.75990000     -68.33720000
H      -49.21640000     -33.92370000     -69.24130000
H      -47.04290000     -36.81250000     -71.56330000
H      -45.48860000     -35.65410000     -67.72000000
H      -47.43900000     -34.20140000     -67.43130000
C      -44.90790000     -37.24490000     -69.67390000
H      -45.22340000     -38.20900000     -70.05760000
H      -44.40430000     -37.42790000     -68.68940000
C      -48.99710000     -35.19540000     -71.69360000
H      -49.21990000     -36.13690000     -72.11100000
H      -49.96090000     -34.60480000     -71.56340000
S      -43.66060000     -36.61160000     -70.89690000
S      -48.01180000     -34.41430000     -73.21150000
C      -43.45040000     -34.85180000     -70.20960000
H      -44.02750000     -34.85060000     -69.27500000
H      -42.39710000     -34.71080000     -70.08570000
C      -47.06870000     -33.02800000     -72.45000000
H      -46.68400000     -33.19630000     -71.47000000
H      -47.76700000     -32.22230000     -72.46320000
C      -45.94000000     -32.66690000     -73.52650000
H      -45.24780000     -33.48140000     -73.64570000
H      -46.38160000     -32.53400000     -74.50610000
C      -44.03370000     -33.90690000     -71.20320000
H      -45.12400000     -34.09700000     -71.30990000
H      -43.58740000     -34.07360000     -72.11550000
C      -43.74750000     -32.44820000     -71.01700000
C      -42.83390000     -31.88370000     -70.11880000
C      -44.17300000     -31.47370000     -72.03610000
H      -42.28720000     -32.47480000     -69.40380000
C      -43.59910000     -30.23040000     -71.80010000
C      -45.11320000     -31.49240000     -73.12920000
C      -45.29260000     -30.27000000     -73.69060000
S      -42.39410000     -30.26200000     -70.57360000
S      -44.17420000     -29.08690000     -73.00090000
H      -45.95940000     -29.97830000     -74.52930000
