40
Properties=species:S:1:pos:R:3 #=T CELL(abcABC):=T 1.889726e+02=T 90.00000=T Traj:=T positionsangstrom=T Step:=T 0=T Bead:=T pbc="F F F"
C      -45.23980000     -30.98950000     -72.69840000
C      -45.33120000     -32.01050000     -73.58160000
C      -46.45610000     -32.87120000     -73.46580000
C      -47.44470000     -32.65760000     -72.49810000
C      -47.27250000     -31.64520000     -71.52200000
C      -46.19670000     -30.83660000     -71.67780000
H      -44.41830000     -30.38320000     -72.87420000
H      -46.68920000     -33.62250000     -74.16200000
H      -47.88030000     -31.58530000     -70.60760000
H      -46.11080000     -29.99760000     -70.91980000
C      -48.58780000     -33.63730000     -72.47590000
H      -48.42150000     -34.46680000     -73.14790000
H      -49.55510000     -33.12640000     -72.62220000
C      -44.37860000     -32.15490000     -74.72330000
H      -44.72000000     -32.92820000     -75.35530000
H      -44.36030000     -31.24400000     -75.35650000
S      -48.97650000     -34.53300000     -70.75950000
S      -42.62100000     -32.47930000     -73.97920000
C      -48.00560000     -36.07360000     -70.87520000
H      -48.11290000     -36.71180000     -70.02520000
H      -48.27440000     -36.69350000     -71.75610000
C      -42.65490000     -34.30950000     -73.61960000
H      -41.62330000     -34.60460000     -73.38200000
H      -42.93340000     -34.88650000     -74.49930000
C      -43.62820000     -34.76360000     -72.52030000
H      -44.69180000     -34.76800000     -72.78480000
H      -43.38130000     -35.77640000     -72.28010000
C      -46.49540000     -35.73370000     -71.03730000
H      -46.37840000     -35.44770000     -72.06850000
H      -45.90960000     -36.66090000     -71.08080000
C      -45.85120000     -34.73150000     -70.09250000
C      -46.36310000     -34.43650000     -68.85450000
C      -44.58440000     -34.06800000     -70.15100000
H      -47.33500000     -34.67780000     -68.50920000
C      -44.20260000     -33.40090000     -69.02540000
C      -43.59760000     -33.96930000     -71.21600000
C      -42.57360000     -33.21290000     -70.81420000
S      -45.45260000     -33.40020000     -67.84150000
S      -42.70760000     -32.57060000     -69.20360000
H      -41.78350000     -33.04940000     -71.51710000
