40
Properties=species:S:1:pos:R:3 #=T CELL(abcABC):=T 1.889726e+02=T 90.00000=T Traj:=T positionsangstrom=T Step:=T 0=T Bead:=T pbc="F F F"
C      -45.16640000     -31.14600000     -72.39100000
C      -45.31390000     -32.08390000     -73.45900000
C      -46.48930000     -32.86210000     -73.57790000
C      -47.43850000     -32.84350000     -72.56760000
C      -47.25010000     -31.95580000     -71.51280000
C      -46.15720000     -31.12860000     -71.41470000
H      -44.28060000     -30.47300000     -72.41920000
H      -46.66570000     -33.48420000     -74.52410000
H      -47.97910000     -31.91860000     -70.73200000
H      -46.12770000     -30.33450000     -70.67110000
C      -48.66570000     -33.68970000     -72.63920000
H      -48.67510000     -34.47920000     -73.47060000
H      -49.51470000     -33.05440000     -72.72270000
C      -44.28710000     -32.26650000     -74.55990000
H      -44.63890000     -32.91190000     -75.35220000
H      -44.25120000     -31.38270000     -75.22120000
S      -49.03890000     -34.45040000     -70.98090000
S      -42.55180000     -32.51530000     -74.00170000
C      -47.91090000     -35.95540000     -71.25030000
H      -48.13140000     -36.60470000     -70.42160000
H      -48.24380000     -36.57570000     -72.10020000
C      -42.39690000     -34.23560000     -73.43120000
H      -41.47660000     -34.21330000     -72.92550000
H      -42.33380000     -34.77450000     -74.33260000
C      -43.46870000     -34.72360000     -72.44930000
H      -44.44610000     -34.53000000     -72.95710000
H      -43.26420000     -35.82490000     -72.43300000
C      -46.45030000     -35.62020000     -71.19700000
H      -46.14320000     -35.22520000     -72.24320000
H      -45.91920000     -36.62290000     -71.20390000
C      -45.92040000     -34.71020000     -70.10710000
C      -46.57480000     -34.39850000     -68.91410000
C      -44.60380000     -34.05700000     -70.16800000
H      -47.50920000     -34.84260000     -68.55420000
C      -44.28950000     -33.31570000     -69.02320000
C      -43.49580000     -34.00060000     -71.07990000
C      -42.44960000     -33.19140000     -70.67700000
S      -45.63940000     -33.25030000     -67.88670000
S      -42.77170000     -32.52260000     -69.05680000
H      -41.59170000     -33.02800000     -71.25610000
