40
Properties=species:S:1:pos:R:3 #=T CELL(abcABC):=T 1.889726e+02=T 90.00000=T Traj:=T positionsangstrom=T Step:=T 0=T Bead:=T pbc="F F F"
C      -45.13590000     -31.10210000     -72.41630000
C      -45.22650000     -32.05640000     -73.45740000
C      -46.39020000     -32.84810000     -73.56190000
C      -47.39640000     -32.79510000     -72.61860000
C      -47.25280000     -31.92290000     -71.52290000
C      -46.15080000     -31.05290000     -71.44120000
H      -44.28010000     -30.44200000     -72.39370000
H      -46.42000000     -33.59140000     -74.38440000
H      -48.03620000     -31.84510000     -70.76450000
H      -46.05420000     -30.30510000     -70.66290000
C      -48.68500000     -33.63180000     -72.72930000
H      -48.66720000     -34.36920000     -73.55470000
H      -49.50720000     -32.94180000     -72.74160000
C      -44.14790000     -32.09270000     -74.53140000
H      -44.38960000     -32.74940000     -75.40170000
H      -44.14020000     -31.05530000     -75.01770000
S      -49.11740000     -34.42580000     -71.09740000
S      -42.48160000     -32.47130000     -73.92720000
C      -47.99460000     -35.97680000     -70.99850000
H      -48.29410000     -36.54850000     -70.09290000
H      -48.31470000     -36.66300000     -71.79950000
C      -42.63050000     -34.25200000     -73.45340000
H      -41.60750000     -34.47060000     -73.07000000
H      -42.85390000     -34.89460000     -74.33730000
C      -43.69160000     -34.66870000     -72.42110000
H      -44.68980000     -34.52920000     -72.85760000
H      -43.54890000     -35.76360000     -72.26540000
C      -46.56140000     -35.57020000     -71.20230000
H      -46.53280000     -34.98920000     -72.11670000
H      -45.96680000     -36.40170000     -71.50580000
C      -45.93770000     -34.67160000     -70.11790000
C      -46.51050000     -34.40650000     -68.90210000
C      -44.60050000     -34.05890000     -70.14970000
H      -47.48500000     -34.71300000     -68.52770000
C      -44.28950000     -33.32000000     -68.94460000
C      -43.57000000     -34.03880000     -71.11010000
C      -42.52300000     -33.27110000     -70.74430000
S      -45.53840000     -33.44190000     -67.82280000
S      -42.68650000     -32.60370000     -69.13730000
H      -41.70330000     -32.85160000     -71.33010000
