40
Properties=species:S:1:pos:R:3 #=T CELL(abcABC):=T 1.889726e+02=T 90.00000=T Traj:=T positionsangstrom=T Step:=T 0=T Bead:=T pbc="F F F"
C      -45.00300000     -31.33010000     -72.41940000
C      -45.28120000     -32.11720000     -73.54930000
C      -46.51390000     -32.86040000     -73.61940000
C      -47.48700000     -32.73580000     -72.61360000
C      -47.21430000     -31.82090000     -71.54460000
C      -45.98300000     -31.26240000     -71.40560000
H      -44.00840000     -30.93110000     -72.29680000
H      -46.68700000     -33.64040000     -74.38310000
H      -47.99740000     -31.70470000     -70.78800000
H      -45.71360000     -30.65880000     -70.47410000
C      -48.72490000     -33.61610000     -72.60640000
H      -48.64820000     -34.33970000     -73.40990000
H      -49.59870000     -32.94840000     -72.85190000
C      -44.30050000     -32.10450000     -74.65310000
H      -44.63150000     -32.94360000     -75.26030000
H      -44.28200000     -31.12300000     -75.13460000
S      -49.06140000     -34.49640000     -71.02660000
S      -42.53910000     -32.31470000     -74.07260000
C      -47.87860000     -35.83710000     -70.91580000
H      -47.96700000     -36.06160000     -69.83220000
H      -48.22030000     -36.69920000     -71.47960000
C      -42.51510000     -34.10220000     -73.58090000
H      -41.49120000     -34.37410000     -73.15200000
H      -42.66310000     -34.78840000     -74.46380000
C      -43.51230000     -34.60260000     -72.51970000
H      -44.52010000     -34.28420000     -72.79110000
H      -43.52450000     -35.67480000     -72.46290000
C      -46.43690000     -35.66860000     -71.14840000
H      -46.21080000     -35.14870000     -72.08660000
H      -45.98830000     -36.62070000     -71.12600000
C      -45.88070000     -34.73800000     -70.14200000
C      -46.55010000     -34.39740000     -68.99470000
C      -44.54080000     -34.16270000     -70.11090000
H      -47.56550000     -34.66070000     -68.85340000
C      -44.32480000     -33.43050000     -68.98750000
C      -43.44240000     -34.04860000     -71.11640000
C      -42.44230000     -33.25380000     -70.58120000
S      -45.74760000     -33.35440000     -67.85920000
S      -42.76600000     -32.62560000     -68.98950000
H      -41.44050000     -33.14710000     -70.93260000
