40
Properties=species:S:1:pos:R:3 #=T CELL(abcABC):=T 1.889726e+02=T 90.00000=T Traj:=T positionsangstrom=T Step:=T 0=T Bead:=T pbc="F F F"
C      -45.36140000     -31.47320000     -73.05290000
C      -45.43320000     -32.67730000     -73.78720000
C      -46.56450000     -33.43930000     -73.58860000
C      -47.56770000     -33.04520000     -72.68620000
C      -47.37820000     -31.83030000     -71.95270000
C      -46.23380000     -31.06430000     -72.08010000
H      -44.41280000     -31.00670000     -73.11850000
H      -46.71370000     -34.45270000     -74.03270000
H      -48.23440000     -31.50140000     -71.31060000
H      -46.13790000     -30.15640000     -71.61360000
C      -48.75950000     -33.91030000     -72.42910000
H      -48.60540000     -34.80560000     -73.12810000
H      -49.65720000     -33.42400000     -72.76570000
C      -44.35530000     -32.92510000     -74.85280000
H      -44.47840000     -33.96240000     -75.29650000
H      -44.36860000     -32.14980000     -75.62800000
S      -49.08100000     -34.37580000     -70.69180000
S      -42.65710000     -32.90300000     -74.13930000
C      -47.95530000     -35.81900000     -70.35330000
H      -48.19550000     -36.12520000     -69.31970000
H      -48.23910000     -36.65760000     -70.96080000
C      -42.53780000     -34.60510000     -73.38060000
H      -41.46470000     -34.69130000     -73.13820000
H      -42.73990000     -35.22280000     -74.23110000
C      -43.35740000     -35.03150000     -72.18080000
H      -44.40210000     -35.21320000     -72.45870000
H      -42.85650000     -35.98670000     -71.82460000
C      -46.47270000     -35.61700000     -70.59590000
H      -46.17570000     -35.58150000     -71.63520000
H      -45.91140000     -36.58850000     -70.37680000
C      -45.83100000     -34.54760000     -69.73150000
C      -46.44610000     -33.97290000     -68.63180000
C      -44.48600000     -33.90210000     -69.98750000
H      -47.43080000     -34.12750000     -68.14290000
C      -44.18840000     -32.91730000     -69.06050000
C      -43.44990000     -33.97590000     -71.03250000
C      -42.47400000     -33.03250000     -70.84600000
S      -45.40750000     -32.73420000     -67.80970000
S      -42.64560000     -31.99600000     -69.45270000
H      -41.63630000     -32.74980000     -71.48900000
