40
Properties=species:S:1:pos:R:3 #=T CELL(abcABC):=T 1.889726e+02=T 90.00000=T Traj:=T positionsangstrom=T Step:=T 0=T Bead:=T pbc="F F F"
C      -45.34010000     -31.30810000     -72.87740000
C      -45.36550000     -32.41470000     -73.68350000
C      -46.41430000     -33.30970000     -73.58260000
C      -47.46270000     -33.13370000     -72.60460000
C      -47.43470000     -31.95670000     -71.86640000
C      -46.38750000     -31.02250000     -72.01950000
H      -44.43240000     -30.66290000     -72.84230000
H      -46.50690000     -34.14730000     -74.27080000
H      -48.20340000     -31.74930000     -71.15420000
H      -46.33340000     -30.12280000     -71.34440000
C      -48.71770000     -33.98750000     -72.55940000
H      -48.81560000     -34.82450000     -73.28510000
H      -49.59420000     -33.34760000     -72.80840000
C      -44.38250000     -32.59930000     -74.84580000
H      -44.79680000     -33.31330000     -75.54000000
H      -44.21180000     -31.57970000     -75.18220000
S      -49.11660000     -34.56080000     -70.79860000
S      -42.62870000     -33.04190000     -74.24860000
C      -47.84520000     -35.87520000     -70.50110000
H      -48.03600000     -36.25320000     -69.51570000
H      -48.07840000     -36.77830000     -71.17010000
C      -42.68800000     -34.71770000     -73.49350000
H      -41.63210000     -34.80640000     -73.23900000
H      -42.97310000     -35.46550000     -74.21180000
C      -43.62660000     -34.78830000     -72.26830000
H      -44.65170000     -34.78090000     -72.60750000
H      -43.56420000     -35.86740000     -71.98960000
C      -46.37790000     -35.45860000     -70.74230000
H      -46.40080000     -35.01110000     -71.74840000
H      -45.75490000     -36.33020000     -70.65090000
C      -45.80510000     -34.37740000     -69.80240000
C      -46.37680000     -33.91320000     -68.65260000
C      -44.53980000     -33.75910000     -70.04330000
H      -47.29390000     -34.21810000     -68.19850000
C      -44.18100000     -32.91330000     -69.03100000
C      -43.52660000     -33.85570000     -71.04930000
C      -42.48110000     -33.01800000     -70.82590000
S      -45.36950000     -32.80670000     -67.73730000
S      -42.60020000     -32.18000000     -69.20150000
H      -41.60120000     -33.09410000     -71.52630000
