40
Properties=species:S:1:pos:R:3 #=T CELL(abcABC):=T 1.889726e+02=T 90.00000=T Traj:=T positionsangstrom=T Step:=T 0=T Bead:=T pbc="F F F"
C      -41.15930000     -32.21500000     -69.41560000
C      -42.32630000     -32.93850000     -69.00360000
C      -42.76730000     -34.05860000     -69.81340000
C      -42.09220000     -34.47220000     -70.97430000
C      -40.92600000     -33.81140000     -71.32920000
C      -40.43270000     -32.73430000     -70.53870000
H      -40.89290000     -31.38870000     -68.73180000
H      -43.54670000     -34.69630000     -69.44840000
H      -40.37360000     -34.15990000     -72.20150000
H      -39.46700000     -32.27810000     -70.72300000
C      -42.69470000     -35.55830000     -71.83040000
H      -43.23360000     -36.33020000     -71.27970000
H      -41.92090000     -36.07700000     -72.48100000
C      -43.07970000     -32.61590000     -67.74150000
H      -43.35840000     -33.51450000     -67.12510000
H      -42.44590000     -31.97320000     -67.18830000
S      -43.99860000     -34.85950000     -72.92370000
S      -44.65510000     -31.63250000     -67.99870000
C      -44.07730000     -33.04410000     -72.56790000
H      -44.49330000     -33.04340000     -71.51250000
H      -43.10180000     -32.62210000     -72.61110000
C      -45.82710000     -32.70130000     -68.91640000
H      -46.58630000     -32.92290000     -68.22310000
H      -45.29750000     -33.63820000     -69.18390000
C      -46.47570000     -31.86630000     -70.16740000
H      -46.83510000     -30.94050000     -69.83240000
H      -45.55560000     -31.61600000     -70.78650000
C      -45.07190000     -32.39390000     -73.43550000
H      -44.74760000     -32.25300000     -74.50360000
H      -45.25250000     -31.34120000     -73.09850000
C      -46.37090000     -33.22860000     -73.39690000
C      -46.80540000     -33.89180000     -74.50780000
C      -47.36960000     -33.12300000     -72.34820000
H      -46.31420000     -34.07320000     -75.48770000
C      -48.54860000     -33.85820000     -72.72040000
C      -47.49570000     -32.61320000     -70.99210000
C      -48.72890000     -32.86350000     -70.43870000
S      -48.47420000     -34.49080000     -74.35450000
S      -49.80380000     -33.79040000     -71.43500000
H      -48.90680000     -32.68680000     -69.38490000
