40
Properties=species:S:1:pos:R:3 #=T CELL(abcABC):=T 1.889726e+02=T 90.00000=T Traj:=T positionsangstrom=T Step:=T 0=T Bead:=T pbc="F F F"
C      -45.16090000     -31.35900000     -72.66090000
C      -45.35110000     -32.36620000     -73.63610000
C      -46.45830000     -33.20160000     -73.53020000
C      -47.42210000     -33.04350000     -72.50820000
C      -47.25240000     -31.98480000     -71.58760000
C      -46.09810000     -31.21130000     -71.65830000
H      -44.35240000     -30.66260000     -72.76460000
H      -46.60570000     -34.11080000     -74.22570000
H      -48.01380000     -31.81440000     -70.81280000
H      -45.94610000     -30.35620000     -71.00650000
C      -48.69040000     -33.83130000     -72.40490000
H      -48.64920000     -34.67300000     -73.08130000
H      -49.54700000     -33.23290000     -72.79530000
C      -44.34120000     -32.47390000     -74.78760000
H      -44.51220000     -33.48890000     -75.22540000
H      -44.33110000     -31.58480000     -75.38380000
S      -49.18550000     -34.48780000     -70.79880000
S      -42.59830000     -32.55910000     -74.14230000
C      -47.94350000     -35.88770000     -70.62970000
H      -48.03490000     -36.20700000     -69.66060000
H      -48.33500000     -36.73130000     -71.24390000
C      -42.58110000     -34.34150000     -73.64610000
H      -41.60510000     -34.60870000     -73.36230000
H      -42.92050000     -35.02570000     -74.42280000
C      -43.51810000     -34.72610000     -72.39910000
H      -44.56890000     -34.79990000     -72.74980000
H      -43.36770000     -35.79610000     -72.05660000
C      -46.50100000     -35.57780000     -70.95700000
H      -46.30730000     -35.22910000     -71.97850000
H      -45.99970000     -36.51770000     -70.76910000
C      -45.87240000     -34.55320000     -69.97930000
C      -46.43890000     -34.13550000     -68.83030000
C      -44.57440000     -33.91730000     -70.15610000
H      -47.41670000     -34.40480000     -68.44660000
C      -44.25570000     -33.09450000     -69.10770000
C      -43.48470000     -33.97050000     -71.11440000
C      -42.41040000     -33.15710000     -70.69030000
S      -45.52550000     -33.03640000     -67.93410000
S      -42.65670000     -32.35560000     -69.17700000
H      -41.51210000     -32.84030000     -71.16010000
