40
Properties=species:S:1:pos:R:3 #=T CELL(abcABC):=T 1.889726e+02=T 90.00000=T Traj:=T positionsangstrom=T Step:=T 0=T Bead:=T pbc="F F F"
C      -45.30470000     -31.21310000     -72.46850000
C      -45.38090000     -32.18210000     -73.50540000
C      -46.48500000     -33.00160000     -73.50260000
C      -47.47760000     -32.88460000     -72.49890000
C      -47.43910000     -31.84990000     -71.51700000
C      -46.29640000     -31.07100000     -71.45430000
H      -44.46900000     -30.53890000     -72.37680000
H      -46.59330000     -33.70330000     -74.39640000
H      -48.23140000     -31.80570000     -70.72550000
H      -46.17880000     -30.23050000     -70.72940000
C      -48.69220000     -33.84040000     -72.57730000
H      -48.43560000     -34.67690000     -73.26780000
H      -49.57020000     -33.30710000     -72.85250000
C      -44.38690000     -32.41590000     -74.60730000
H      -44.80040000     -33.11660000     -75.33330000
H      -44.34110000     -31.45550000     -75.23310000
S      -49.06220000     -34.55140000     -70.85760000
S      -42.60720000     -32.71880000     -74.11560000
C      -47.86180000     -35.91020000     -70.79250000
H      -47.86090000     -36.35710000     -69.81910000
H      -48.16170000     -36.73220000     -71.50850000
C      -42.40750000     -34.40640000     -73.48270000
H      -41.29250000     -34.46850000     -73.26460000
H      -42.52000000     -35.06040000     -74.37920000
C      -43.42720000     -34.80730000     -72.40770000
H      -44.38020000     -34.84400000     -72.86210000
H      -43.11140000     -35.77730000     -72.11490000
C      -46.33100000     -35.59220000     -71.00430000
H      -46.18110000     -35.40860000     -72.08280000
H      -45.84270000     -36.54380000     -70.89630000
C      -45.87250000     -34.58420000     -70.02740000
C      -46.53120000     -34.17930000     -68.92500000
C      -44.53710000     -33.97460000     -70.18500000
H      -47.59850000     -34.29200000     -68.71020000
C      -44.32670000     -33.04240000     -69.18450000
C      -43.47090000     -34.01060000     -71.16470000
C      -42.44820000     -33.16240000     -70.86080000
S      -45.53690000     -33.05500000     -67.89990000
S      -42.66960000     -32.40030000     -69.19850000
H      -41.48020000     -33.04310000     -71.38430000
