40
Properties=species:S:1:pos:R:3 #=T CELL(abcABC):=T 1.889726e+02=T 90.00000=T Traj:=T positionsangstrom=T Step:=T 0=T Bead:=T pbc="F F F"
C      -45.32680000     -31.35180000     -72.98140000
C      -45.41040000     -32.48330000     -73.75610000
C      -46.55180000     -33.26560000     -73.56610000
C      -47.54160000     -33.01790000     -72.65730000
C      -47.42420000     -31.83150000     -71.90560000
C      -46.32650000     -30.98660000     -72.07630000
H      -44.62610000     -30.60600000     -73.29230000
H      -46.56250000     -34.20590000     -74.23000000
H      -48.15970000     -31.65260000     -71.11960000
H      -46.21810000     -30.24030000     -71.29460000
C      -48.67690000     -33.98150000     -72.46570000
H      -48.39520000     -34.89470000     -72.96340000
H      -49.63870000     -33.65280000     -72.89390000
C      -44.41140000     -32.96100000     -74.72470000
H      -44.68420000     -33.88600000     -75.29150000
H      -44.38620000     -32.35230000     -75.59820000
S      -49.08850000     -34.47210000     -70.75360000
S      -42.62770000     -33.00470000     -74.23790000
C      -47.95340000     -35.82460000     -70.34960000
H      -48.07720000     -35.94200000     -69.27130000
H      -48.25990000     -36.74410000     -70.85130000
C      -42.50930000     -34.61670000     -73.25990000
H      -41.55190000     -34.68390000     -72.78790000
H      -42.41590000     -35.46030000     -74.01580000
C      -43.62880000     -34.85440000     -72.27030000
H      -44.55390000     -34.59850000     -72.82100000
H      -43.78790000     -35.85170000     -71.92210000
C      -46.47150000     -35.52040000     -70.67660000
H      -46.44540000     -35.22810000     -71.76710000
H      -45.86930000     -36.47350000     -70.63950000
C      -45.82630000     -34.48240000     -69.78700000
C      -46.38840000     -33.95720000     -68.64640000
C      -44.52770000     -33.78430000     -70.06990000
H      -47.27750000     -34.21180000     -68.10800000
C      -44.22760000     -32.82150000     -69.15000000
C      -43.52380000     -33.90160000     -71.08070000
C      -42.50000000     -33.06470000     -70.82100000
S      -45.29620000     -32.79750000     -67.77840000
S      -42.61280000     -32.15750000     -69.32300000
H      -41.56850000     -33.12930000     -71.44890000
