40
Properties=species:S:1:pos:R:3 #=T CELL(abcABC):=T 1.889726e+02=T 90.00000=T Traj:=T positionsangstrom=T Step:=T 0=T Bead:=T pbc="F F F"
C      -45.05340000     -31.78550000     -73.39120000
C      -45.29690000     -33.06060000     -73.87270000
C      -46.52110000     -33.81850000     -73.50000000
C      -47.42420000     -33.21190000     -72.60830000
C      -47.12120000     -31.94300000     -72.03590000
C      -46.01300000     -31.21620000     -72.49630000
H      -44.14610000     -31.20920000     -73.56040000
H      -46.66430000     -34.79400000     -73.93710000
H      -47.75050000     -31.53220000     -71.30610000
H      -45.72280000     -30.27660000     -71.96100000
C      -48.73320000     -33.85170000     -72.32120000
H      -48.79600000     -34.87990000     -72.60750000
H      -49.48180000     -33.37220000     -72.99380000
C      -44.36330000     -33.74310000     -74.79350000
H      -44.88450000     -34.69900000     -75.23320000
H      -44.18220000     -32.95940000     -75.58600000
S      -49.30790000     -33.85280000     -70.51710000
S      -42.69750000     -34.09600000     -74.06760000
C      -48.20830000     -35.15150000     -69.84170000
H      -48.26940000     -34.98790000     -68.73500000
H      -48.45430000     -36.20230000     -69.92420000
C      -42.92150000     -35.59890000     -72.96530000
H      -41.93660000     -35.75670000     -72.51640000
H      -43.22960000     -36.44330000     -73.65160000
C      -43.91520000     -35.35990000     -71.77750000
H      -44.99140000     -35.17690000     -72.16630000
H      -44.00320000     -36.29430000     -71.07450000
C      -46.67990000     -35.02890000     -70.14190000
H      -46.41130000     -35.20690000     -71.19930000
H      -46.28900000     -35.93570000     -69.66480000
C      -45.93840000     -33.84470000     -69.67130000
C      -46.42550000     -32.95100000     -68.73720000
C      -44.57780000     -33.50910000     -70.07970000
H      -47.32590000     -33.01230000     -68.23320000
C      -44.05930000     -32.41260000     -69.36060000
C      -43.54340000     -34.15930000     -70.88250000
C      -42.33660000     -33.48030000     -70.85810000
S      -45.18780000     -31.73450000     -68.27120000
S      -42.42140000     -32.13680000     -69.72310000
H      -41.39930000     -33.61810000     -71.34140000
