40
Properties=species:S:1:pos:R:3 #=T CELL(abcABC):=T 1.889726e+02=T 90.00000=T Traj:=T positionsangstrom=T Step:=T 0=T Bead:=T pbc="F F F"
C      -41.39850000     -32.32970000     -68.81050000
C      -42.78960000     -32.72960000     -68.65060000
C      -43.14900000     -33.96090000     -69.21730000
C      -42.32590000     -34.70560000     -70.10080000
C      -40.99930000     -34.33950000     -70.20650000
C      -40.55920000     -33.14340000     -69.57450000
H      -41.03600000     -31.43710000     -68.33400000
H      -44.19470000     -34.28850000     -69.04060000
H      -40.28490000     -34.97980000     -70.83270000
H      -39.45360000     -32.76740000     -69.72520000
C      -42.91380000     -35.86010000     -70.86320000
H      -43.14240000     -36.54270000     -70.10350000
H      -42.17360000     -36.37940000     -71.45980000
C      -43.78400000     -31.89810000     -67.84520000
H      -44.64630000     -32.51010000     -67.34980000
H      -43.31620000     -31.18040000     -67.15070000
S      -44.34030000     -35.44540000     -71.98630000
S      -44.63640000     -30.63240000     -68.95880000
C      -43.89570000     -33.70880000     -72.38840000
H      -44.20500000     -33.00600000     -71.57660000
H      -42.83880000     -33.58040000     -72.51760000
C      -45.78430000     -31.74040000     -69.85770000
H      -46.64940000     -31.97350000     -69.12070000
H      -45.33310000     -32.71560000     -70.01180000
C      -46.32470000     -31.21330000     -71.18500000
H      -46.62840000     -30.20900000     -71.15410000
H      -45.42110000     -31.18540000     -71.82490000
C      -44.65570000     -33.25770000     -73.63920000
H      -44.18750000     -33.68660000     -74.48320000
H      -44.52790000     -32.20040000     -73.73860000
C      -46.06900000     -33.67310000     -73.55490000
C      -46.46790000     -34.72910000     -74.38840000
C      -47.12820000     -33.16440000     -72.75240000
H      -45.98170000     -35.42750000     -75.14030000
C      -48.32440000     -33.91390000     -72.93910000
C      -47.38020000     -32.14410000     -71.79270000
C      -48.71190000     -31.96850000     -71.40760000
S      -48.10300000     -35.22120000     -74.03620000
S      -49.67680000     -33.29410000     -72.08110000
H      -48.97760000     -31.35320000     -70.57350000
