40
Properties=species:S:1:pos:R:3 #=T CELL(abcABC):=T 1.889726e+02=T 90.00000=T Traj:=T positionsangstrom=T Step:=T 0=T Bead:=T pbc="F F F"
C      -44.76370000     -35.05990000     -74.08990000
C      -45.60860000     -35.92120000     -73.38060000
C      -46.94810000     -35.53990000     -73.14630000
C      -47.49280000     -34.36690000     -73.58000000
C      -46.67140000     -33.57670000     -74.45820000
C      -45.31200000     -33.87740000     -74.68630000
H      -43.67950000     -35.17940000     -74.21020000
H      -47.49030000     -36.21070000     -72.50680000
H      -47.08420000     -32.73160000     -74.92760000
H      -44.79330000     -33.22040000     -75.33330000
C      -48.91500000     -33.87730000     -73.38480000
H      -49.81630000     -34.50250000     -73.65650000
H      -49.02630000     -32.93470000     -73.88850000
C      -44.96290000     -37.18010000     -72.77160000
H      -45.69700000     -38.01850000     -72.90080000
H      -43.99320000     -37.48480000     -73.31990000
S      -49.23960000     -33.31890000     -71.54090000
S      -44.73210000     -37.00270000     -70.93250000
C      -47.93870000     -32.10850000     -71.27880000
H      -47.66460000     -31.54630000     -72.19500000
H      -48.26410000     -31.38690000     -70.53530000
C      -44.23370000     -35.21530000     -70.89830000
H      -45.00150000     -34.70820000     -71.33820000
H      -43.27750000     -35.08510000     -71.53250000
C      -44.09610000     -34.73210000     -69.48420000
H      -44.96370000     -34.79890000     -68.90930000
H      -43.38930000     -35.37550000     -68.89080000
C      -46.67220000     -32.71870000     -70.72460000
H      -46.36280000     -33.53170000     -71.37450000
H      -46.77170000     -33.19920000     -69.75030000
C      -45.48960000     -31.81710000     -70.59860000
C      -45.52010000     -30.41830000     -70.87260000
C      -44.21530000     -32.15450000     -69.96460000
H      -46.32950000     -29.99340000     -71.42130000
C      -43.37280000     -31.04410000     -69.81990000
C      -43.55910000     -33.31290000     -69.45520000
C      -42.42380000     -33.06490000     -68.73920000
S      -44.12110000     -29.52610000     -70.34830000
S      -41.82930000     -31.36050000     -69.03130000
H      -41.70520000     -33.76110000     -68.27600000
