40
Properties=species:S:1:pos:R:3 #=T CELL(abcABC):=T 1.889726e+02=T 90.00000=T Traj:=T positionsangstrom=T Step:=T 0=T Bead:=T pbc="F F F"
C      -44.61320000     -35.24220000     -74.18900000
C      -45.51440000     -35.95920000     -73.38020000
C      -46.81280000     -35.50730000     -73.14860000
C      -47.24930000     -34.24570000     -73.65770000
C      -46.31250000     -33.54020000     -74.43900000
C      -45.03750000     -34.00600000     -74.67350000
H      -43.57010000     -35.50940000     -74.29630000
H      -47.44200000     -36.09100000     -72.48050000
H      -46.58570000     -32.59510000     -74.92200000
H      -44.35320000     -33.28690000     -75.17130000
C      -48.63990000     -33.77850000     -73.41640000
H      -49.32930000     -34.47460000     -73.92230000
H      -48.66680000     -32.79800000     -73.93820000
C      -44.90860000     -37.23510000     -72.72880000
H      -45.57330000     -38.08350000     -72.83620000
H      -43.90550000     -37.53150000     -73.00710000
S      -49.17400000     -33.69600000     -71.64870000
S      -44.82550000     -36.87720000     -70.91890000
C      -47.99080000     -32.36340000     -71.01780000
H      -48.09390000     -31.56690000     -71.76040000
H      -48.42410000     -32.04170000     -70.06130000
C      -43.98560000     -35.29690000     -70.94740000
H      -44.55270000     -34.60220000     -71.62430000
H      -42.97520000     -35.41080000     -71.37580000
C      -44.04540000     -34.64740000     -69.56140000
H      -45.06670000     -34.65430000     -69.27730000
H      -43.48650000     -35.14910000     -68.73810000
C      -46.57230000     -32.87900000     -70.64170000
H      -45.99290000     -33.32920000     -71.44130000
H      -46.75700000     -33.63670000     -69.91060000
C      -45.69630000     -31.76830000     -70.10660000
C      -46.01310000     -30.45270000     -70.01920000
C      -44.28170000     -31.99500000     -69.96160000
H      -47.00480000     -30.02710000     -70.22970000
C      -43.48770000     -30.81350000     -69.95080000
C      -43.53700000     -33.22840000     -69.70170000
C      -42.22830000     -32.96920000     -69.46780000
S      -44.61440000     -29.42900000     -69.89810000
S      -41.84790000     -31.20160000     -69.52760000
H      -41.49000000     -33.71220000     -69.37830000
