40
Properties=species:S:1:pos:R:3 #=T CELL(abcABC):=T 1.889726e+02=T 90.00000=T Traj:=T positionsangstrom=T Step:=T 0=T Bead:=T pbc="F F F"
C      -44.52570000     -32.59620000     -73.59800000
C      -45.15970000     -33.82280000     -73.62970000
C      -46.53610000     -33.84280000     -73.25030000
C      -47.19140000     -32.71480000     -72.72840000
C      -46.53750000     -31.48750000     -72.84310000
C      -45.17240000     -31.41800000     -73.31250000
H      -43.49470000     -32.52890000     -73.89360000
H      -47.18710000     -34.73510000     -73.41330000
H      -47.06130000     -30.59380000     -72.47940000
H      -44.75680000     -30.39050000     -73.29790000
C      -48.54970000     -32.67680000     -72.16150000
H      -49.19810000     -33.46430000     -72.57130000
H      -49.08970000     -31.78000000     -72.42430000
C      -44.64500000     -35.00530000     -74.30470000
H      -45.54190000     -35.37400000     -74.88010000
H      -43.82820000     -34.71260000     -74.90030000
S      -48.76690000     -32.97020000     -70.32920000
S      -43.91750000     -36.46390000     -73.26680000
C      -47.82450000     -34.56480000     -69.88860000
H      -48.54060000     -35.25380000     -69.42980000
H      -47.47140000     -35.00580000     -70.87150000
C      -44.89320000     -36.47370000     -71.74800000
H      -44.96730000     -37.58150000     -71.45000000
H      -45.93170000     -36.07760000     -71.96200000
C      -44.16980000     -35.73540000     -70.63690000
H      -44.63200000     -35.91170000     -69.68710000
H      -43.23340000     -36.25280000     -70.52530000
C      -46.76460000     -34.23040000     -68.88100000
H      -46.22900000     -35.17770000     -68.68090000
H      -47.30330000     -33.90900000     -67.95470000
C      -45.78620000     -33.12410000     -69.26750000
C      -46.02380000     -31.84550000     -68.87360000
C      -44.54050000     -33.24510000     -69.98580000
H      -46.92060000     -31.51700000     -68.32470000
C      -43.81490000     -32.04130000     -69.96280000
C      -43.88450000     -34.29030000     -70.76450000
C      -42.71510000     -33.82540000     -71.29190000
S      -44.68220000     -30.74160000     -69.15760000
S      -42.28530000     -32.14290000     -70.87200000
H      -42.10330000     -34.36290000     -71.94030000
