40
Properties=species:S:1:pos:R:3 #=T CELL(abcABC):=T 1.889726e+02=T 90.00000=T Traj:=T positionsangstrom=T Step:=T 0=T Bead:=T pbc="F F F"
C      -44.66750000     -32.82180000     -73.52370000
C      -45.50110000     -33.90750000     -73.90410000
C      -46.80140000     -33.91000000     -73.38470000
C      -47.27750000     -32.82590000     -72.66940000
C      -46.47940000     -31.75340000     -72.33510000
C      -45.13330000     -31.78720000     -72.76750000
H      -43.75780000     -32.72010000     -74.11380000
H      -47.44180000     -34.62000000     -73.76980000
H      -46.73260000     -30.90310000     -71.66410000
H      -44.52300000     -30.91270000     -72.58880000
C      -48.70960000     -32.86380000     -72.12740000
H      -49.17480000     -33.73440000     -72.66990000
H      -49.30480000     -31.98430000     -72.42890000
C      -44.93590000     -35.18320000     -74.60370000
H      -45.87450000     -35.77780000     -74.80020000
H      -44.39600000     -34.98310000     -75.50050000
S      -48.66260000     -33.09160000     -70.34430000
S      -43.82680000     -35.99600000     -73.36540000
C      -47.84310000     -34.60910000     -70.04980000
H      -48.57530000     -35.34830000     -69.71210000
H      -47.40640000     -34.86600000     -71.02300000
C      -44.80190000     -36.04170000     -71.85630000
H      -45.35690000     -36.97060000     -71.55450000
H      -45.59240000     -35.28470000     -71.78180000
C      -43.92980000     -35.71570000     -70.61200000
H      -44.50510000     -36.06310000     -69.76770000
H      -43.03070000     -36.34960000     -70.56430000
C      -46.62790000     -34.42730000     -69.07290000
H      -45.95630000     -35.24530000     -69.17820000
H      -46.96170000     -34.36860000     -68.01870000
C      -45.79580000     -33.19970000     -69.40770000
C      -46.14380000     -31.91540000     -68.98650000
C      -44.45200000     -33.20850000     -69.97870000
H      -46.99930000     -31.60590000     -68.43340000
C      -43.81190000     -31.95190000     -69.95730000
C      -43.51440000     -34.21260000     -70.45720000
C      -42.37330000     -33.73280000     -71.02800000
S      -44.91660000     -30.73030000     -69.32400000
S      -42.23470000     -32.03350000     -70.73370000
H      -41.47840000     -34.32320000     -71.45150000
