40
Properties=species:S:1:pos:R:3 #=T CELL(abcABC):=T 1.889726e+02=T 90.00000=T Traj:=T positionsangstrom=T Step:=T 0=T Bead:=T pbc="F F F"
C      -48.36840000     -34.22170000     -68.90500000
C      -48.11300000     -34.80390000     -70.16900000
C      -47.07770000     -35.77000000     -70.30920000
C      -46.27570000     -36.09510000     -69.22270000
C      -46.52120000     -35.52770000     -67.94510000
C      -47.51290000     -34.56230000     -67.79150000
H      -49.12630000     -33.35810000     -68.82100000
H      -46.78260000     -36.30530000     -71.28340000
H      -45.86670000     -35.82780000     -67.14790000
H      -47.62670000     -34.09340000     -66.84090000
C      -45.13130000     -37.06290000     -69.26260000
H      -45.54230000     -38.06470000     -69.18020000
H      -44.52380000     -36.88880000     -68.31580000
C      -48.99360000     -34.56170000     -71.35770000
H      -49.65920000     -35.38780000     -71.41410000
H      -49.58690000     -33.60340000     -71.20040000
S      -44.04090000     -36.92220000     -70.68520000
S      -48.16240000     -34.19740000     -72.96400000
C      -43.28160000     -35.24730000     -70.79140000
H      -43.09900000     -35.07380000     -69.73050000
H      -42.30350000     -35.39720000     -71.26860000
C      -47.12010000     -32.70060000     -72.67890000
H      -46.64040000     -32.84180000     -71.68080000
H      -47.70740000     -31.68010000     -72.58060000
C      -46.06540000     -32.59330000     -73.75280000
H      -45.50960000     -33.52470000     -73.99140000
H      -46.56690000     -32.23840000     -74.74430000
C      -44.11650000     -34.25420000     -71.67330000
H      -45.16810000     -34.43240000     -71.32380000
H      -44.04530000     -34.45190000     -72.74910000
C      -43.63850000     -32.80550000     -71.57020000
C      -42.61680000     -32.42750000     -70.68950000
C      -44.15050000     -31.68510000     -72.34940000
H      -42.17780000     -33.03070000     -69.89230000
C      -43.43270000     -30.51630000     -72.04160000
C      -45.09520000     -31.47920000     -73.41410000
C      -44.96580000     -30.18220000     -73.91630000
S      -42.33470000     -30.65410000     -70.70070000
S      -43.71240000     -29.16830000     -73.12560000
H      -45.54730000     -29.85080000     -74.72460000
