40
Properties=species:S:1:pos:R:3 #=T CELL(abcABC):=T 1.889726e+02=T 90.00000=T Traj:=T positionsangstrom=T Step:=T 0=T Bead:=T pbc="F F F"
C      -44.55710000     -32.67150000     -73.67920000
C      -45.32090000     -33.80740000     -73.69240000
C      -46.62980000     -33.81000000     -73.17950000
C      -47.11940000     -32.64920000     -72.62260000
C      -46.28910000     -31.50350000     -72.53340000
C      -45.01670000     -31.45180000     -73.19990000
H      -43.57000000     -32.78080000     -73.96110000
H      -47.35320000     -34.55350000     -73.28330000
H      -46.79230000     -30.59650000     -72.18820000
H      -44.50860000     -30.46100000     -73.22350000
C      -48.58460000     -32.66480000     -72.24070000
H      -49.15070000     -33.45340000     -72.78910000
H      -49.01870000     -31.67510000     -72.41260000
C      -44.85710000     -35.06410000     -74.35410000
H      -45.70220000     -35.67880000     -74.66200000
H      -44.20360000     -34.88410000     -75.21720000
S      -48.84470000     -32.92460000     -70.43590000
S      -43.88230000     -36.19880000     -73.30420000
C      -47.80930000     -34.39380000     -70.06180000
H      -48.47130000     -35.26660000     -69.90900000
H      -47.18570000     -34.61260000     -70.89780000
C      -44.91980000     -36.43840000     -71.75590000
H      -45.15840000     -37.47920000     -71.71080000
H      -45.75110000     -35.83470000     -71.98590000
C      -44.20330000     -35.87290000     -70.48730000
H      -44.87490000     -36.05270000     -69.59320000
H      -43.25480000     -36.51500000     -70.28520000
C      -46.88320000     -34.14640000     -68.86030000
H      -46.48400000     -35.08550000     -68.50740000
H      -47.54190000     -33.76190000     -68.02140000
C      -45.75660000     -33.12290000     -69.10850000
C      -45.73080000     -31.86470000     -68.53650000
C      -44.57910000     -33.27050000     -69.96920000
H      -46.53570000     -31.35150000     -67.95710000
C      -43.90950000     -32.09550000     -70.17520000
C      -43.84190000     -34.41200000     -70.48710000
C      -42.71600000     -33.99710000     -71.12500000
S      -44.45060000     -30.81830000     -69.20370000
S      -42.47590000     -32.26370000     -71.09710000
H      -42.00130000     -34.65820000     -71.50150000
