40
Properties=species:S:1:pos:R:3 #=T CELL(abcABC):=T 1.889726e+02=T 90.00000=T Traj:=T positionsangstrom=T Step:=T 0=T Bead:=T pbc="F F F"
C      -45.13540000     -35.20800000     -74.54760000
C      -45.80300000     -35.89620000     -73.52100000
C      -47.14670000     -35.55140000     -73.21510000
C      -47.73930000     -34.44590000     -73.79540000
C      -47.04860000     -33.72040000     -74.80370000
C      -45.76870000     -34.13610000     -75.22110000
H      -44.02940000     -35.37580000     -74.79630000
H      -47.71480000     -36.04840000     -72.44920000
H      -47.44790000     -32.83720000     -75.30390000
H      -45.15390000     -33.68080000     -75.99040000
C      -49.05820000     -33.87050000     -73.38160000
H      -49.79320000     -34.67570000     -73.25770000
H      -49.48290000     -33.09250000     -73.99700000
C      -45.13740000     -37.20030000     -72.89850000
H      -45.77300000     -38.06900000     -72.94170000
H      -44.16180000     -37.37650000     -73.33780000
S      -49.09840000     -33.16480000     -71.56770000
S      -44.88980000     -36.85520000     -71.02360000
C      -47.60960000     -32.02020000     -71.64340000
H      -47.48720000     -31.83350000     -72.74020000
H      -47.77350000     -31.13500000     -71.00750000
C      -43.94080000     -35.28500000     -70.86690000
H      -44.47040000     -34.56550000     -71.51630000
H      -42.90210000     -35.45010000     -71.22090000
C      -44.07140000     -34.73970000     -69.41690000
H      -45.17480000     -34.91840000     -69.09030000
H      -43.44140000     -35.35240000     -68.80330000
C      -46.23090000     -32.61600000     -71.27230000
H      -45.86400000     -33.26490000     -72.01440000
H      -46.37010000     -33.37950000     -70.45820000
C      -45.20020000     -31.68320000     -70.72140000
C      -45.14630000     -30.31180000     -70.91100000
C      -44.04650000     -32.14180000     -69.84710000
H      -45.95150000     -29.79720000     -71.42840000
C      -43.35960000     -31.06050000     -69.38000000
C      -43.56090000     -33.30170000     -69.24550000
C      -42.45500000     -33.15690000     -68.42170000
S      -43.88840000     -29.48210000     -70.00440000
S      -41.96050000     -31.53650000     -68.48740000
H      -41.89590000     -33.91990000     -67.94290000
