40
Properties=species:S:1:pos:R:3 #=T CELL(abcABC):=T 1.889726e+02=T 90.00000=T Traj:=T positionsangstrom=T Step:=T 0=T Bead:=T pbc="F F F"
C      -44.68470000     -32.57880000     -73.77010000
C      -45.27930000     -33.82160000     -73.79450000
C      -46.52250000     -33.93470000     -73.29460000
C      -47.21570000     -32.81620000     -72.71850000
C      -46.56270000     -31.57290000     -72.68300000
C      -45.26560000     -31.48450000     -73.20570000
H      -43.70690000     -32.42090000     -74.30650000
H      -47.08740000     -34.93800000     -73.29550000
H      -47.09720000     -30.76820000     -72.23810000
H      -44.75000000     -30.50270000     -73.23610000
C      -48.68290000     -32.86760000     -72.19800000
H      -49.19520000     -33.73930000     -72.59800000
H      -49.16930000     -31.93570000     -72.50810000
C      -44.61430000     -35.11920000     -74.39670000
H      -45.21460000     -35.55070000     -75.16830000
H      -43.72880000     -34.81620000     -75.02070000
S      -48.74170000     -32.92320000     -70.37930000
S      -43.99010000     -36.41390000     -73.35340000
C      -47.65460000     -34.46600000     -70.10920000
H      -48.25490000     -35.33090000     -69.90440000
H      -47.07360000     -34.68970000     -71.00570000
C      -44.83680000     -36.25210000     -71.71940000
H      -45.37980000     -37.15440000     -71.47370000
H      -45.66560000     -35.56740000     -71.82130000
C      -43.95850000     -35.81810000     -70.49970000
H      -44.38830000     -36.14820000     -69.53200000
H      -43.01660000     -36.33450000     -70.60840000
C      -46.68110000     -34.34520000     -68.91350000
H      -46.11880000     -35.25470000     -68.81460000
H      -47.18350000     -34.25770000     -68.00140000
C      -45.73420000     -33.17200000     -69.15000000
C      -46.05900000     -31.90230000     -68.78110000
C      -44.46850000     -33.24460000     -69.86170000
H      -46.90940000     -31.56180000     -68.25050000
C      -43.88710000     -31.96890000     -70.06980000
C      -43.63610000     -34.31580000     -70.46390000
C      -42.44040000     -33.78240000     -70.86790000
S      -44.82990000     -30.73290000     -69.30560000
S      -42.35590000     -32.03720000     -70.80430000
H      -41.65430000     -34.16320000     -71.52270000
