40
Properties=species:S:1:pos:R:3 #=T CELL(abcABC):=T 1.889726e+02=T 90.00000=T Traj:=T positionsangstrom=T Step:=T 0=T Bead:=T pbc="F F F"
C      -44.95560000     -32.43350000     -73.57260000
C      -45.48960000     -33.74510000     -73.65420000
C      -46.81510000     -33.96140000     -73.17180000
C      -47.54890000     -32.85490000     -72.79860000
C      -46.94690000     -31.60170000     -72.65420000
C      -45.62650000     -31.36050000     -73.07440000
H      -43.97980000     -32.43090000     -74.09600000
H      -47.30160000     -34.91220000     -73.44130000
H      -47.49850000     -30.73440000     -72.33060000
H      -45.19100000     -30.37470000     -73.00640000
C      -48.92270000     -33.11030000     -72.24750000
H      -49.17670000     -34.13070000     -72.59180000
H      -49.66400000     -32.38450000     -72.69180000
C      -44.84650000     -34.84490000     -74.38950000
H      -45.55370000     -35.60230000     -74.71370000
H      -44.29040000     -34.50810000     -75.27050000
S      -48.83500000     -33.13420000     -70.36130000
S      -43.46720000     -35.74730000     -73.52040000
C      -47.63670000     -34.48660000     -70.09300000
H      -48.13910000     -35.42150000     -70.02450000
H      -47.04320000     -34.43220000     -70.98030000
C      -43.96290000     -36.63150000     -71.89840000
H      -43.00670000     -37.07700000     -71.64020000
H      -44.63290000     -37.46890000     -72.05180000
C      -44.42380000     -35.72860000     -70.80850000
H      -45.49140000     -35.53220000     -70.96290000
H      -44.22890000     -36.31920000     -69.85360000
C      -46.67120000     -34.25740000     -68.86650000
H      -46.07570000     -35.21110000     -68.85450000
H      -47.25410000     -34.05750000     -67.94880000
C      -45.77600000     -33.13610000     -69.17800000
C      -45.88860000     -31.83250000     -68.59860000
C      -44.55450000     -33.33120000     -69.94760000
H      -46.85270000     -31.40690000     -68.27200000
C      -43.78950000     -32.10230000     -70.01870000
C      -43.78250000     -34.41610000     -70.60500000
C      -42.58440000     -33.99260000     -71.03800000
S      -44.55580000     -30.76880000     -69.10290000
S      -42.24590000     -32.27500000     -70.78530000
H      -41.82420000     -34.57350000     -71.48010000
