40
Properties=species:S:1:pos:R:3 #=T CELL(abcABC):=T 1.889726e+02=T 90.00000=T Traj:=T positionsangstrom=T Step:=T 0=T Bead:=T pbc="F F F"
C      -44.42220000     -32.60950000     -73.32150000
C      -45.42020000     -33.47400000     -73.70490000
C      -46.78100000     -33.19250000     -73.49530000
C      -47.22720000     -32.08560000     -72.75060000
C      -46.24820000     -31.11650000     -72.46940000
C      -44.86110000     -31.32630000     -72.73780000
H      -43.31430000     -32.77520000     -73.40610000
H      -47.55020000     -33.95820000     -73.75650000
H      -46.57890000     -30.16050000     -71.98760000
H      -44.23340000     -30.52890000     -72.50540000
C      -48.64560000     -32.05060000     -72.33980000
H      -49.33660000     -32.65290000     -72.98730000
H      -49.06490000     -31.04140000     -72.32530000
C      -45.00710000     -34.74350000     -74.41310000
H      -45.95370000     -35.22130000     -74.71320000
H      -44.50350000     -34.45090000     -75.32630000
S      -48.89440000     -32.56270000     -70.53040000
S      -44.03070000     -35.90610000     -73.43720000
C      -47.93570000     -34.14190000     -70.39590000
H      -48.64530000     -34.94330000     -70.36290000
H      -47.24340000     -34.31080000     -71.25860000
C      -45.08320000     -36.35000000     -71.98780000
H      -45.32980000     -37.45640000     -72.01990000
H      -46.01780000     -35.73400000     -72.04660000
C      -44.37430000     -36.24720000     -70.59970000
H      -45.01220000     -36.56810000     -69.78030000
H      -43.62060000     -36.97200000     -70.50780000
C      -47.05810000     -34.23520000     -69.18300000
H      -46.94280000     -35.23710000     -68.83230000
H      -47.60110000     -33.78910000     -68.34850000
C      -45.78190000     -33.40990000     -69.40820000
C      -45.94380000     -32.06770000     -69.11920000
C      -44.47410000     -33.71950000     -69.79530000
H      -46.88770000     -31.62420000     -68.92780000
C      -43.63240000     -32.56500000     -69.83190000
C      -43.78810000     -34.88200000     -70.35270000
C      -42.53330000     -34.51940000     -70.84400000
S      -44.47190000     -31.12830000     -69.22340000
S      -42.00590000     -32.85970000     -70.52660000
H      -41.82060000     -35.24140000     -71.17630000
