40
Properties=species:S:1:pos:R:3 #=T CELL(abcABC):=T 1.889726e+02=T 90.00000=T Traj:=T positionsangstrom=T Step:=T 0=T Bead:=T pbc="F F F"
C      -44.41940000     -32.36110000     -73.47150000
C      -45.34110000     -33.44100000     -73.66400000
C      -46.66460000     -33.33380000     -73.32490000
C      -47.14210000     -32.16060000     -72.69190000
C      -46.25580000     -31.17420000     -72.39550000
C      -44.86980000     -31.26290000     -72.76740000
H      -43.37230000     -32.57310000     -73.88780000
H      -47.46140000     -34.02210000     -73.59610000
H      -46.63060000     -30.33050000     -71.82180000
H      -44.20090000     -30.36460000     -72.59180000
C      -48.58630000     -31.99130000     -72.24480000
H      -49.18240000     -32.51730000     -73.01280000
H      -48.87460000     -30.97930000     -72.21040000
C      -44.86290000     -34.67820000     -74.49370000
H      -45.69000000     -35.26210000     -74.89280000
H      -44.26820000     -34.43090000     -75.38090000
S      -48.93720000     -32.58600000     -70.56360000
S      -43.98250000     -35.87600000     -73.38200000
C      -48.06640000     -34.21170000     -70.43320000
H      -48.87680000     -34.94270000     -70.17400000
H      -47.72320000     -34.42280000     -71.41900000
C      -45.32090000     -36.19990000     -72.09210000
H      -45.92030000     -37.11030000     -72.33520000
H      -45.91270000     -35.34110000     -72.09590000
C      -44.51970000     -36.27180000     -70.73500000
H      -45.18690000     -36.76590000     -70.04250000
H      -43.74420000     -37.05710000     -71.07120000
C      -46.97910000     -34.30790000     -69.37580000
H      -46.54240000     -35.29280000     -69.40850000
H      -47.42860000     -34.22840000     -68.34430000
C      -45.81680000     -33.28580000     -69.40630000
C      -45.83590000     -31.98060000     -68.92250000
C      -44.54310000     -33.60740000     -69.95310000
H      -46.56480000     -31.55570000     -68.23720000
C      -43.63410000     -32.53400000     -69.96130000
C      -43.92420000     -34.90680000     -70.38300000
C      -42.61620000     -34.68090000     -70.73250000
S      -44.36270000     -31.10670000     -69.23640000
S      -42.05980000     -33.01820000     -70.38450000
H      -41.85240000     -35.45650000     -70.99730000
