40
Properties=species:S:1:pos:R:3 #=T CELL(abcABC):=T 1.889726e+02=T 90.00000=T Traj:=T positionsangstrom=T Step:=T 0=T Bead:=T pbc="F F F"
C      -44.51750000     -32.64180000     -73.54780000
C      -45.52730000     -33.63510000     -73.87440000
C      -46.89410000     -33.44540000     -73.52770000
C      -47.23640000     -32.26290000     -72.74860000
C      -46.25730000     -31.28090000     -72.51210000
C      -44.90750000     -31.52480000     -72.89020000
H      -43.45390000     -32.91340000     -73.61940000
H      -47.60560000     -34.21400000     -73.73700000
H      -46.51840000     -30.40030000     -71.94910000
H      -44.16650000     -30.81460000     -72.53770000
C      -48.65460000     -32.04870000     -72.14230000
H      -49.35520000     -32.76960000     -72.52960000
H      -49.03800000     -31.10490000     -72.42490000
C      -45.15080000     -34.90230000     -74.57930000
H      -46.05330000     -35.43710000     -74.84720000
H      -44.56200000     -34.75100000     -75.51660000
S      -48.74940000     -32.44480000     -70.27830000
S      -43.98960000     -35.92570000     -73.48510000
C      -48.03980000     -34.19570000     -70.26100000
H      -48.89420000     -34.84240000     -69.97870000
H      -47.68840000     -34.46090000     -71.21690000
C      -45.12570000     -36.15540000     -72.02230000
H      -45.59280000     -37.14160000     -72.01940000
H      -45.97440000     -35.42810000     -71.98160000
C      -44.28090000     -36.06620000     -70.74360000
H      -44.81200000     -36.35470000     -69.85830000
H      -43.37770000     -36.70550000     -70.83090000
C      -46.89400000     -34.40000000     -69.24550000
H      -46.51800000     -35.40240000     -69.45580000
H      -47.31570000     -34.33760000     -68.21990000
C      -45.79550000     -33.38690000     -69.41580000
C      -45.94030000     -32.12170000     -68.89120000
C      -44.47680000     -33.62990000     -69.97260000
H      -46.68070000     -31.68170000     -68.25450000
C      -43.72340000     -32.48910000     -69.96460000
C      -43.74210000     -34.73270000     -70.50390000
C      -42.45320000     -34.41710000     -70.77470000
S      -44.47960000     -31.14100000     -69.20030000
S      -42.04460000     -32.68380000     -70.43540000
H      -41.72730000     -35.06820000     -71.08930000
