40
Properties=species:S:1:pos:R:3 #=T CELL(abcABC):=T 1.889726e+02=T 90.00000=T Traj:=T positionsangstrom=T Step:=T 0=T Bead:=T pbc="F F F"
C      -42.24160000     -34.39720000     -74.07880000
C      -42.24840000     -33.72430000     -72.86500000
C      -42.78660000     -32.43440000     -72.76200000
C      -43.31870000     -31.80630000     -73.92470000
C      -43.32610000     -32.51320000     -75.10790000
C      -42.80030000     -33.82080000     -75.17160000
H      -41.81880000     -35.39860000     -74.10630000
H      -42.69320000     -32.07210000     -71.77210000
H      -43.73800000     -32.02320000     -75.93970000
H      -42.94610000     -34.33560000     -76.16880000
C      -43.85490000     -30.30900000     -73.72260000
H      -44.70510000     -30.10250000     -74.41880000
H      -43.04560000     -29.62440000     -74.02500000
C      -41.85400000     -34.37220000     -71.61250000
H      -40.83260000     -34.81210000     -71.67740000
H      -41.97100000     -33.79110000     -70.70140000
S      -44.25660000     -29.91930000     -71.96230000
S      -42.76430000     -36.08240000     -71.38650000
C      -45.64930000     -31.03560000     -71.47170000
H      -46.45470000     -30.24080000     -71.52560000
H      -45.78460000     -31.81910000     -72.23460000
C      -44.40090000     -35.78320000     -70.63730000
H      -44.38200000     -35.53780000     -69.54150000
H      -44.88010000     -36.78170000     -70.66260000
C      -45.28070000     -34.75020000     -71.40240000
H      -44.80850000     -33.74680000     -71.29630000
H      -45.38520000     -34.95600000     -72.38770000
C      -45.45640000     -31.65100000     -70.03620000
H      -45.08570000     -30.77070000     -69.33140000
H      -44.52530000     -32.26580000     -70.09410000
C      -46.70360000     -32.33640000     -69.56210000
C      -47.60380000     -31.75280000     -68.71530000
C      -47.10680000     -33.68710000     -69.97840000
H      -47.34630000     -30.87210000     -68.17150000
C      -48.34630000     -34.05910000     -69.36400000
C      -46.65440000     -34.77570000     -70.86900000
C      -47.44130000     -35.87940000     -70.81290000
S      -48.95560000     -32.75980000     -68.34690000
S      -48.97380000     -35.58800000     -69.85670000
H      -47.47210000     -36.78020000     -71.41140000
