40
Properties=species:S:1:pos:R:3 #=T CELL(abcABC):=T 1.889726e+02=T 90.00000=T Traj:=T positionsangstrom=T Step:=T 0=T Bead:=T pbc="F F F"
C      -42.63480000     -34.41960000     -74.10520000
C      -42.51760000     -33.77790000     -72.85530000
C      -42.90080000     -32.44050000     -72.67790000
C      -43.56030000     -31.74270000     -73.70040000
C      -43.63310000     -32.40290000     -74.90950000
C      -43.15140000     -33.66230000     -75.15070000
H      -42.57050000     -35.48340000     -74.09460000
H      -42.69470000     -31.94280000     -71.73820000
H      -44.00580000     -31.79200000     -75.74890000
H      -43.25060000     -34.14140000     -76.11830000
C      -43.95980000     -30.32080000     -73.62250000
H      -44.65690000     -30.14350000     -74.48280000
H      -43.14330000     -29.65380000     -73.88490000
C      -41.89620000     -34.60310000     -71.73490000
H      -40.83510000     -34.78760000     -72.07600000
H      -41.99650000     -34.01540000     -70.77060000
S      -44.53480000     -29.75510000     -71.99770000
S      -42.72170000     -36.18920000     -71.43330000
C      -45.58810000     -31.08770000     -71.37640000
H      -46.53520000     -30.64840000     -71.01710000
H      -45.84370000     -31.86560000     -72.09650000
C      -44.21840000     -35.73800000     -70.58630000
H      -43.99050000     -35.16990000     -69.67120000
H      -44.56110000     -36.70190000     -70.16790000
C      -45.26970000     -35.10690000     -71.50870000
H      -44.98910000     -34.10310000     -71.80020000
H      -45.44650000     -35.80510000     -72.35090000
C      -45.07350000     -31.87420000     -70.10020000
H      -44.76610000     -31.11090000     -69.41830000
H      -44.30140000     -32.58030000     -70.37880000
C      -46.27990000     -32.55570000     -69.47540000
C      -47.09240000     -31.84430000     -68.61800000
C      -46.92170000     -33.81950000     -69.95130000
H      -46.96800000     -30.80430000     -68.31620000
C      -48.19370000     -33.97640000     -69.43100000
C      -46.59410000     -34.95260000     -70.83880000
C      -47.61890000     -35.81470000     -70.95720000
S      -48.65540000     -32.63670000     -68.28180000
S      -49.01980000     -35.32640000     -70.01750000
H      -47.55230000     -36.70960000     -71.57550000
