40
Properties=species:S:1:pos:R:3 #=T CELL(abcABC):=T 1.889726e+02=T 90.00000=T Traj:=T positionsangstrom=T Step:=T 0=T Bead:=T pbc="F F F"
C      -44.41800000     -32.32400000     -73.53030000
C      -45.28940000     -33.37350000     -73.86610000
C      -46.63150000     -33.23920000     -73.42700000
C      -47.10580000     -32.18450000     -72.69800000
C      -46.20250000     -31.14160000     -72.35830000
C      -44.86440000     -31.20650000     -72.78500000
H      -43.35680000     -32.37490000     -73.86090000
H      -47.22510000     -34.09740000     -73.67480000
H      -46.66330000     -30.37940000     -71.79330000
H      -44.14570000     -30.44030000     -72.30130000
C      -48.54640000     -32.19040000     -72.27980000
H      -49.12030000     -32.90570000     -72.86860000
H      -49.07420000     -31.22200000     -72.40950000
C      -44.78940000     -34.53450000     -74.59240000
H      -45.62880000     -35.04580000     -75.11150000
H      -43.93880000     -34.27160000     -75.25940000
S      -48.95510000     -32.59680000     -70.45320000
S      -43.97520000     -35.83540000     -73.52500000
C      -48.19110000     -34.25730000     -70.19940000
H      -48.94540000     -34.97300000     -69.77280000
H      -47.92980000     -34.69790000     -71.14250000
C      -45.19800000     -36.21010000     -72.18090000
H      -45.65980000     -37.21200000     -72.35320000
H      -46.02270000     -35.53180000     -72.42570000
C      -44.72190000     -36.19510000     -70.74400000
H      -45.51340000     -36.19120000     -70.05920000
H      -44.06050000     -37.07280000     -70.46560000
C      -47.06660000     -34.10200000     -69.17440000
H      -46.68880000     -35.12080000     -68.96840000
H      -47.67400000     -33.69720000     -68.34410000
C      -45.88620000     -33.28850000     -69.49920000
C      -45.94200000     -31.94790000     -69.22810000
C      -44.56550000     -33.73160000     -69.93560000
H      -46.83110000     -31.52630000     -68.71380000
C      -43.65050000     -32.71780000     -69.82170000
C      -43.86120000     -34.93090000     -70.37480000
C      -42.52500000     -34.70050000     -70.60480000
S      -44.37220000     -31.18220000     -69.21410000
S      -41.99350000     -33.03050000     -70.30810000
H      -41.74740000     -35.41030000     -71.10480000
