40
Properties=species:S:1:pos:R:3 #=T CELL(abcABC):=T 1.889726e+02=T 90.00000=T Traj:=T positionsangstrom=T Step:=T 0=T Bead:=T pbc="F F F"
C      -42.30400000     -34.19350000     -74.24890000
C      -42.17050000     -33.68790000     -72.96650000
C      -42.59370000     -32.42310000     -72.56280000
C      -43.19510000     -31.61400000     -73.55600000
C      -43.35530000     -32.08930000     -74.96050000
C      -42.77850000     -33.35050000     -75.26910000
H      -41.94570000     -35.20000000     -74.62820000
H      -42.40800000     -32.14920000     -71.55000000
H      -44.02370000     -31.64080000     -75.68750000
H      -42.85670000     -33.64020000     -76.36440000
C      -43.74130000     -30.24190000     -73.17560000
H      -44.57320000     -29.95920000     -73.83010000
H      -42.89650000     -29.55930000     -73.41770000
C      -41.48000000     -34.61890000     -71.96950000
H      -40.46380000     -34.89600000     -72.43080000
H      -41.24660000     -33.93620000     -71.10810000
S      -44.19230000     -30.01170000     -71.43120000
S      -42.47830000     -36.00460000     -71.30240000
C      -45.74300000     -30.89010000     -71.41720000
H      -46.67670000     -30.29660000     -71.30190000
H      -45.80270000     -31.52770000     -72.34090000
C      -43.93590000     -35.13760000     -70.46760000
H      -43.52600000     -34.18560000     -70.08470000
H      -44.26170000     -35.77540000     -69.61300000
C      -45.18820000     -34.94210000     -71.38870000
H      -45.09920000     -33.94860000     -71.97970000
H      -45.13060000     -35.74930000     -72.26040000
C      -45.67540000     -31.70440000     -70.03990000
H      -45.58310000     -30.90220000     -69.26790000
H      -44.80450000     -32.29490000     -70.11860000
C      -46.94810000     -32.44640000     -69.75420000
C      -48.06870000     -31.80780000     -69.20060000
C      -47.29580000     -33.79170000     -70.11180000
H      -48.02370000     -30.81970000     -68.76660000
C      -48.58810000     -34.21690000     -69.71700000
C      -46.56570000     -34.91620000     -70.65990000
C      -47.35710000     -36.05300000     -70.56000000
S      -49.43340000     -32.90520000     -68.93800000
S      -48.92610000     -35.86530000     -69.89430000
H      -47.08340000     -37.00650000     -71.11290000
