40
Properties=species:S:1:pos:R:3 #=T CELL(abcABC):=T 1.889726e+02=T 90.00000=T Traj:=T positionsangstrom=T Step:=T 0=T Bead:=T pbc="F F F"
C      -48.99870000     -33.37650000     -71.84170000
C      -48.32080000     -32.92160000     -72.95200000
C      -47.79750000     -31.63850000     -72.85790000
C      -47.80580000     -30.85670000     -71.66890000
C      -48.64010000     -31.28720000     -70.61700000
C      -49.20990000     -32.59790000     -70.66490000
H      -49.41450000     -34.37540000     -71.81790000
H      -47.27890000     -31.21480000     -73.66420000
H      -48.82530000     -30.74710000     -69.68720000
H      -49.84770000     -32.83800000     -69.85310000
C      -47.04180000     -29.57910000     -71.52420000
H      -47.09150000     -29.11340000     -70.54280000
H      -47.45810000     -28.90280000     -72.27580000
C      -48.20690000     -33.77290000     -74.14960000
H      -48.70550000     -34.76400000     -74.14220000
H      -48.62420000     -33.22090000     -75.02900000
S      -45.23140000     -29.87830000     -71.97840000
S      -46.39820000     -34.15690000     -74.53450000
C      -44.64990000     -31.25550000     -70.87010000
H      -44.58110000     -30.91540000     -69.83810000
H      -45.45070000     -31.96330000     -70.83130000
C      -46.01990000     -35.31710000     -73.14550000
H      -45.17790000     -35.93020000     -73.39680000
H      -46.92400000     -35.85150000     -72.85470000
C      -45.47170000     -34.46670000     -71.97740000
H      -44.86850000     -33.63010000     -72.35090000
H      -46.27980000     -34.00390000     -71.42270000
C      -43.30870000     -31.95770000     -71.35220000
H      -42.45760000     -31.25000000     -71.40150000
H      -43.34550000     -32.24430000     -72.34430000
C      -42.91220000     -33.12820000     -70.41070000
C      -41.95870000     -33.00150000     -69.45870000
C      -43.47600000     -34.48430000     -70.33460000
H      -41.32610000     -32.13790000     -69.22660000
C      -42.77980000     -35.35890000     -69.45680000
C      -44.62350000     -35.14670000     -70.94100000
C      -44.72620000     -36.44380000     -70.57310000
S      -41.68170000     -34.44830000     -68.46350000
S      -43.46180000     -36.97950000     -69.43430000
H      -45.45750000     -37.15670000     -70.82260000
