40
Properties=species:S:1:pos:R:3 #=T CELL(abcABC):=T 1.889726e+02=T 90.00000=T Traj:=T positionsangstrom=T Step:=T 0=T Bead:=T pbc="F F F"
C      -43.77250000     -32.39070000     -73.24420000
C      -44.79180000     -33.20180000     -73.72390000
C      -46.17210000     -32.84240000     -73.44710000
C      -46.48180000     -31.71600000     -72.66960000
C      -45.46150000     -30.89710000     -72.13850000
C      -44.11120000     -31.30070000     -72.43280000
H      -42.76260000     -32.79630000     -73.32380000
H      -46.80860000     -33.55800000     -73.83680000
H      -45.69600000     -30.01320000     -71.63650000
H      -43.33030000     -30.58120000     -72.06030000
C      -47.96440000     -31.38780000     -72.44100000
H      -48.69210000     -31.81700000     -73.13770000
H      -48.06840000     -30.31040000     -72.54860000
C      -44.59160000     -34.38840000     -74.62950000
H      -45.52440000     -34.58280000     -75.03550000
H      -43.85190000     -34.26890000     -75.40480000
S      -48.52700000     -31.99560000     -70.73320000
S      -44.38690000     -36.07880000     -73.67600000
C      -48.21120000     -33.80100000     -70.82050000
H      -49.21030000     -34.16090000     -70.84840000
H      -47.86110000     -33.90460000     -71.86870000
C      -45.71820000     -36.00100000     -72.43830000
H      -46.56150000     -36.61150000     -72.58740000
H      -46.19500000     -34.95610000     -72.40600000
C      -45.02900000     -36.35220000     -71.09160000
H      -45.67100000     -36.75850000     -70.28570000
H      -44.32360000     -37.14200000     -71.28930000
C      -47.42880000     -34.32650000     -69.61180000
H      -47.28440000     -35.40780000     -69.70160000
H      -48.17650000     -34.16540000     -68.78040000
C      -46.15830000     -33.58160000     -69.31350000
C      -46.20150000     -32.39600000     -68.55240000
C      -44.90190000     -33.93150000     -69.94730000
H      -47.00170000     -31.96390000     -67.92010000
C      -43.93290000     -32.92970000     -69.70020000
C      -44.24460000     -35.09890000     -70.65310000
C      -42.91290000     -34.89690000     -70.82580000
S      -44.60120000     -31.64110000     -68.66900000
S      -42.32650000     -33.35410000     -70.17930000
H      -42.15840000     -35.61970000     -71.14270000
