40
Properties=species:S:1:pos:R:3 #=T CELL(abcABC):=T 1.889726e+02=T 90.00000=T Traj:=T positionsangstrom=T Step:=T 0=T Bead:=T pbc="F F F"
C      -43.96960000     -32.53890000     -73.51260000
C      -44.98230000     -33.39260000     -73.97880000
C      -46.29800000     -33.12860000     -73.54230000
C      -46.56600000     -32.00700000     -72.72200000
C      -45.54960000     -31.23190000     -72.18760000
C      -44.19050000     -31.54080000     -72.54990000
H      -42.94430000     -32.64220000     -73.88980000
H      -47.15080000     -33.69010000     -73.88250000
H      -45.78970000     -30.20560000     -71.70780000
H      -43.46290000     -30.79270000     -72.30740000
C      -47.97750000     -31.46120000     -72.41120000
H      -48.56100000     -31.84780000     -73.24850000
H      -48.10070000     -30.36270000     -72.51030000
C      -44.65290000     -34.68750000     -74.76950000
H      -45.57510000     -35.13280000     -75.15970000
H      -43.99070000     -34.51660000     -75.60150000
S      -48.58480000     -31.90980000     -70.74250000
S      -44.00980000     -35.96490000     -73.64580000
C      -48.23590000     -33.74570000     -70.68050000
H      -49.24310000     -34.15260000     -70.67440000
H      -47.67250000     -34.24410000     -71.52060000
C      -45.52320000     -36.19750000     -72.58150000
H      -45.85790000     -37.23590000     -72.79710000
H      -46.28260000     -35.56770000     -72.97050000
C      -45.29550000     -36.04160000     -71.07060000
H      -46.25280000     -36.04000000     -70.66110000
H      -44.72330000     -36.96060000     -70.72410000
C      -47.52700000     -34.08280000     -69.42470000
H      -47.39700000     -35.14160000     -69.25740000
H      -48.15130000     -33.71620000     -68.63520000
C      -46.16230000     -33.41170000     -69.32420000
C      -46.07910000     -32.28290000     -68.54010000
C      -44.87630000     -33.72850000     -69.86540000
H      -46.77960000     -31.94920000     -67.80370000
C      -43.87530000     -32.83460000     -69.55470000
C      -44.43050000     -34.82860000     -70.69910000
C      -43.06210000     -34.72370000     -70.92320000
S      -44.42020000     -31.71220000     -68.42760000
S      -42.34960000     -33.29000000     -70.16370000
H      -42.51720000     -35.47050000     -71.47590000
