40
Properties=species:S:1:pos:R:3 #=T CELL(abcABC):=T 1.889726e+02=T 90.00000=T Traj:=T positionsangstrom=T Step:=T 0=T Bead:=T pbc="F F F"
C      -43.99980000     -32.70770000     -73.31200000
C      -45.01520000     -33.40730000     -73.98620000
C      -46.33300000     -33.02370000     -73.72260000
C      -46.63860000     -31.99190000     -72.88440000
C      -45.63550000     -31.20580000     -72.25500000
C      -44.28270000     -31.66900000     -72.41730000
H      -42.93140000     -32.95220000     -73.38030000
H      -47.05680000     -33.56750000     -74.26510000
H      -45.79470000     -30.60820000     -71.37400000
H      -43.51230000     -31.13420000     -71.79780000
C      -48.04880000     -31.51920000     -72.63350000
H      -48.74960000     -32.00250000     -73.32920000
H      -47.97420000     -30.45100000     -72.64670000
C      -44.68570000     -34.59980000     -74.88030000
H      -45.63500000     -34.90570000     -75.39610000
H      -43.99920000     -34.28330000     -75.71950000
S      -48.65930000     -31.90320000     -70.83630000
S      -44.06640000     -36.00910000     -73.82000000
C      -48.21470000     -33.70350000     -70.70070000
H      -49.18130000     -34.17920000     -70.73530000
H      -47.61910000     -33.97300000     -71.60440000
C      -45.44700000     -36.28840000     -72.56490000
H      -45.71950000     -37.33140000     -72.72380000
H      -46.40380000     -35.76800000     -72.87660000
C      -45.12840000     -36.13360000     -71.03660000
H      -46.06940000     -36.32580000     -70.45610000
H      -44.48550000     -37.00390000     -70.91600000
C      -47.41190000     -34.03060000     -69.34570000
H      -47.33700000     -35.13570000     -69.15610000
H      -48.05780000     -33.68900000     -68.52840000
C      -46.12390000     -33.37200000     -69.15570000
C      -45.97680000     -32.17500000     -68.48390000
C      -44.87180000     -33.76810000     -69.72250000
H      -46.79170000     -31.71610000     -67.95580000
C      -43.86430000     -32.91600000     -69.34170000
C      -44.43140000     -34.86500000     -70.54190000
C      -43.08240000     -34.67740000     -70.82420000
S      -44.37030000     -31.55220000     -68.42990000
S      -42.31020000     -33.31800000     -70.10870000
H      -42.53680000     -35.41110000     -71.42020000
