40
Properties=species:S:1:pos:R:3 #=T CELL(abcABC):=T 1.889726e+02=T 90.00000=T Traj:=T positionsangstrom=T Step:=T 0=T Bead:=T pbc="F F F"
C      -43.82890000     -32.35010000     -73.42080000
C      -44.82920000     -33.16710000     -73.94920000
C      -46.16360000     -32.91290000     -73.52150000
C      -46.46020000     -31.78500000     -72.70400000
C      -45.39060000     -30.96510000     -72.16060000
C      -44.07220000     -31.23830000     -72.59560000
H      -42.85050000     -32.53710000     -73.85110000
H      -47.07440000     -33.42680000     -73.88440000
H      -45.64090000     -30.24450000     -71.50540000
H      -43.22000000     -30.63590000     -72.26230000
C      -47.89400000     -31.43230000     -72.39060000
H      -48.55940000     -31.90410000     -73.10550000
H      -47.98290000     -30.34770000     -72.42790000
C      -44.45850000     -34.41670000     -74.68040000
H      -45.09540000     -34.59460000     -75.61350000
H      -43.47330000     -34.30950000     -75.15200000
S      -48.36400000     -31.98610000     -70.68390000
S      -44.35280000     -35.98780000     -73.76240000
C      -48.27260000     -33.71300000     -70.80780000
H      -49.16910000     -34.37270000     -70.80850000
H      -47.64010000     -34.08950000     -71.66390000
C      -45.69920000     -36.18420000     -72.48230000
H      -46.27920000     -37.04090000     -72.82090000
H      -46.37510000     -35.26070000     -72.64920000
C      -45.09970000     -36.32170000     -71.03150000
H      -46.03580000     -36.60360000     -70.44170000
H      -44.44960000     -37.15330000     -70.97910000
C      -47.58290000     -34.23050000     -69.40710000
H      -47.62840000     -35.31550000     -69.27180000
H      -48.24910000     -33.82980000     -68.67310000
C      -46.18210000     -33.64660000     -69.19890000
C      -46.14370000     -32.41970000     -68.52840000
C      -44.92040000     -34.03620000     -69.72670000
H      -46.99330000     -31.76190000     -68.27590000
C      -43.94370000     -33.03100000     -69.49880000
C      -44.35480000     -35.09240000     -70.54030000
C      -43.02880000     -34.86740000     -70.78420000
S      -44.63770000     -31.62430000     -68.67700000
S      -42.40050000     -33.32230000     -70.20130000
H      -42.36820000     -35.52140000     -71.29910000
