40
Properties=species:S:1:pos:R:3 #=T CELL(abcABC):=T 1.889726e+02=T 90.00000=T Traj:=T positionsangstrom=T Step:=T 0=T Bead:=T pbc="F F F"
C      -43.98300000     -32.58840000     -73.13770000
C      -45.12800000     -33.24790000     -73.62610000
C      -46.37940000     -32.76570000     -73.38210000
C      -46.63700000     -31.74830000     -72.48930000
C      -45.48400000     -31.07520000     -71.90140000
C      -44.23620000     -31.47250000     -72.30230000
H      -43.00100000     -33.00490000     -73.21270000
H      -47.26420000     -33.32560000     -73.79660000
H      -45.71270000     -30.20410000     -71.20480000
H      -43.39190000     -30.97170000     -71.85830000
C      -48.05680000     -31.26260000     -72.32690000
H      -48.66630000     -31.48230000     -73.20560000
H      -48.05590000     -30.16410000     -72.11020000
C      -44.88610000     -34.44680000     -74.51980000
H      -45.82170000     -34.58490000     -75.00250000
H      -44.23880000     -34.17950000     -75.31780000
S      -48.80310000     -31.93970000     -70.80950000
S      -44.20880000     -36.01550000     -73.77070000
C      -48.28420000     -33.69210000     -70.91260000
H      -49.22980000     -34.34990000     -70.91240000
H      -47.79470000     -33.95490000     -71.79250000
C      -45.48080000     -36.22620000     -72.53230000
H      -46.05760000     -37.14910000     -72.75670000
H      -46.26240000     -35.52330000     -72.61870000
C      -44.93020000     -36.29120000     -71.13570000
H      -45.73570000     -36.39410000     -70.41390000
H      -44.33150000     -37.19550000     -71.00500000
C      -47.45530000     -34.10830000     -69.75560000
H      -47.32600000     -35.14990000     -69.97710000
H      -47.96000000     -34.08620000     -68.81620000
C      -46.14280000     -33.37530000     -69.60520000
C      -46.04340000     -32.20420000     -68.81460000
C      -44.84100000     -33.86380000     -70.03940000
H      -46.92100000     -31.61560000     -68.63590000
C      -43.81770000     -32.98160000     -69.69120000
C      -44.20490000     -35.05260000     -70.68090000
C      -42.84260000     -34.92790000     -70.74660000
S      -44.35840000     -31.62600000     -68.77930000
S      -42.17060000     -33.51840000     -69.93130000
H      -42.07310000     -35.63150000     -71.08490000
