40
Properties=species:S:1:pos:R:3 #=T CELL(abcABC):=T 1.889726e+02=T 90.00000=T Traj:=T positionsangstrom=T Step:=T 0=T Bead:=T pbc="F F F"
C      -44.25670000     -32.36150000     -73.34030000
C      -45.14460000     -33.25290000     -73.91210000
C      -46.51650000     -32.92050000     -73.87870000
C      -46.93170000     -31.80020000     -73.19550000
C      -46.04500000     -30.94140000     -72.49540000
C      -44.67830000     -31.21260000     -72.63450000
H      -43.17760000     -32.38930000     -73.34050000
H      -47.29600000     -33.50780000     -74.28900000
H      -46.25540000     -29.94080000     -72.11290000
H      -43.92370000     -30.53410000     -72.20270000
C      -48.43230000     -31.70870000     -72.87690000
H      -49.00740000     -32.39890000     -73.52790000
H      -48.89980000     -30.71220000     -72.94200000
C      -44.80600000     -34.54170000     -74.55030000
H      -45.59290000     -34.93590000     -75.26590000
H      -43.92320000     -34.39280000     -75.22310000
S      -48.77080000     -32.07530000     -71.10310000
S      -44.26520000     -35.75630000     -73.33850000
C      -47.91190000     -33.64400000     -70.70560000
H      -48.52120000     -34.49740000     -70.87340000
H      -47.17220000     -33.67280000     -71.51470000
C      -45.74780000     -36.02990000     -72.19640000
H      -46.27210000     -36.91030000     -72.65840000
H      -46.28550000     -35.04310000     -72.52160000
C      -45.40980000     -36.14100000     -70.71190000
H      -46.27950000     -36.03810000     -70.05850000
H      -44.97130000     -37.12290000     -70.57440000
C      -47.22290000     -33.73250000     -69.30100000
H      -47.19610000     -34.76830000     -68.93240000
H      -47.95550000     -33.19590000     -68.59900000
C      -45.86910000     -33.18690000     -69.17790000
C      -45.57720000     -31.89920000     -68.79380000
C      -44.66580000     -33.91190000     -69.64630000
H      -46.38490000     -31.22380000     -68.73520000
C      -43.55750000     -33.18470000     -69.40210000
C      -44.33570000     -35.24490000     -70.18180000
C      -42.99360000     -35.36470000     -70.40700000
S      -43.87660000     -31.47310000     -68.89170000
S      -42.09630000     -33.93680000     -70.00960000
H      -42.53110000     -36.16640000     -70.98130000
