40
Properties=species:S:1:pos:R:3 #=T CELL(abcABC):=T 1.889726e+02=T 90.00000=T Traj:=T positionsangstrom=T Step:=T 0=T Bead:=T pbc="F F F"
C      -43.27840000     -36.51080000     -71.12930000
C      -43.66880000     -35.80120000     -69.99120000
C      -45.04290000     -35.94240000     -69.53610000
C      -45.88580000     -36.74860000     -70.31660000
C      -45.48960000     -37.36540000     -71.54070000
C      -44.13030000     -37.39510000     -71.84900000
H      -42.23330000     -36.41420000     -71.41300000
H      -45.34670000     -35.34370000     -68.72470000
H      -46.12730000     -37.83780000     -72.13620000
H      -43.81050000     -37.89510000     -72.75670000
C      -47.43850000     -36.69270000     -70.03020000
H      -47.86380000     -37.43510000     -69.37970000
H      -47.94560000     -36.87490000     -70.93700000
C      -42.60940000     -35.07000000     -69.17250000
H      -43.04500000     -34.59630000     -68.35390000
H      -41.88650000     -35.84460000     -68.81830000
S      -48.00740000     -35.10920000     -69.25370000
S      -41.50450000     -34.01590000     -70.23090000
C      -47.23070000     -33.71360000     -70.20550000
H      -47.91980000     -32.87470000     -70.12060000
H      -46.35240000     -33.36130000     -69.62360000
C      -42.35720000     -32.44200000     -70.79830000
H      -41.54230000     -32.13000000     -71.49360000
H      -42.30310000     -31.70940000     -69.96960000
C      -43.66860000     -32.74140000     -71.49460000
H      -43.48520000     -33.59100000     -72.20400000
H      -44.20730000     -33.14400000     -70.61290000
C      -46.83990000     -33.87040000     -71.70390000
H      -47.52330000     -34.56090000     -72.10960000
H      -45.89570000     -34.27940000     -71.72040000
C      -46.90470000     -32.50730000     -72.32980000
C      -48.05320000     -32.03100000     -72.89300000
C      -45.81060000     -31.56950000     -72.45730000
H      -49.00710000     -32.53120000     -72.82120000
C      -46.24170000     -30.35040000     -72.90350000
C      -44.41140000     -31.54440000     -72.02160000
C      -43.83850000     -30.30210000     -72.31970000
S      -47.94330000     -30.26420000     -73.23420000
S      -44.95200000     -29.12910000     -72.99160000
H      -42.86400000     -30.02260000     -72.02300000
