40
Properties=species:S:1:pos:R:3 #=T CELL(abcABC):=T 1.889726e+02=T 90.00000=T Traj:=T positionsangstrom=T Step:=T 0=T Bead:=T pbc="F F F"
C      -43.17320000     -36.65440000     -71.17410000
C      -43.54720000     -35.80390000     -70.07950000
C      -44.88400000     -35.86710000     -69.61850000
C      -45.84760000     -36.56590000     -70.37850000
C      -45.48630000     -37.38100000     -71.43810000
C      -44.14950000     -37.44440000     -71.75930000
H      -42.11930000     -36.56350000     -71.55910000
H      -45.14820000     -35.48590000     -68.69170000
H      -46.17490000     -37.89840000     -71.96720000
H      -43.81750000     -38.15460000     -72.47810000
C      -47.26420000     -36.55860000     -69.96140000
H      -47.35410000     -37.24650000     -69.07560000
H      -47.85550000     -36.91560000     -70.86700000
C      -42.64850000     -34.94600000     -69.32950000
H      -43.15610000     -34.27010000     -68.56660000
H      -42.01990000     -35.49800000     -68.63700000
S      -48.14400000     -35.05580000     -69.36010000
S      -41.42940000     -34.02740000     -70.29100000
C      -47.13250000     -33.71400000     -70.14870000
H      -47.66120000     -32.77900000     -70.00320000
H      -46.16870000     -33.55820000     -69.62180000
C      -42.30960000     -32.50130000     -70.85040000
H      -41.66360000     -32.06760000     -71.60630000
H      -42.59900000     -31.75150000     -70.08400000
C      -43.66990000     -32.82170000     -71.53100000
H      -43.51690000     -33.59230000     -72.31810000
H      -44.34810000     -33.27250000     -70.73870000
C      -46.94760000     -33.91040000     -71.63100000
H      -47.83790000     -34.45130000     -72.10470000
H      -45.98630000     -34.48470000     -71.89280000
C      -46.97740000     -32.50140000     -72.25200000
C      -48.14790000     -31.87410000     -72.63190000
C      -45.84820000     -31.60910000     -72.50420000
H      -49.13310000     -32.30430000     -72.55300000
C      -46.25090000     -30.40370000     -73.03300000
C      -44.43040000     -31.63700000     -72.07900000
C      -43.83680000     -30.39460000     -72.27190000
S      -47.98440000     -30.27790000     -73.21390000
S      -44.97730000     -29.16190000     -72.86940000
H      -42.88190000     -30.12120000     -71.93620000
