40
Properties=species:S:1:pos:R:3 #=T CELL(abcABC):=T 1.889726e+02=T 90.00000=T Traj:=T positionsangstrom=T Step:=T 0=T Bead:=T pbc="F F F"
C      -44.19470000     -32.13480000     -73.45450000
C      -45.05520000     -33.19160000     -73.86290000
C      -46.44790000     -33.00490000     -73.75440000
C      -46.97780000     -31.87400000     -73.11570000
C      -46.09340000     -30.86150000     -72.71460000
C      -44.73290000     -31.03300000     -72.83960000
H      -43.15480000     -32.12570000     -73.56930000
H      -47.15080000     -33.74120000     -74.11490000
H      -46.46750000     -30.01330000     -72.10510000
H      -44.15330000     -30.24550000     -72.45670000
C      -48.46290000     -31.62580000     -72.74430000
H      -49.08400000     -32.25490000     -73.38390000
H      -48.69460000     -30.53640000     -72.94450000
C      -44.53340000     -34.41910000     -74.57460000
H      -45.32090000     -34.67440000     -75.25190000
H      -43.61060000     -34.18820000     -75.11110000
S      -48.81360000     -31.90830000     -70.89170000
S      -44.12550000     -35.76710000     -73.33730000
C      -47.95980000     -33.61480000     -70.68480000
H      -48.78390000     -34.35340000     -70.95680000
H      -47.16460000     -33.56040000     -71.40010000
C      -45.61830000     -36.03290000     -72.30480000
H      -46.30940000     -36.76400000     -72.69560000
H      -46.20480000     -35.13370000     -72.29230000
C      -45.30060000     -36.38340000     -70.81290000
H      -46.21190000     -36.59070000     -70.25250000
H      -44.73760000     -37.30510000     -70.85890000
C      -47.39660000     -33.83600000     -69.29520000
H      -47.37460000     -34.86590000     -69.05190000
H      -48.08540000     -33.40340000     -68.54260000
C      -45.94310000     -33.27680000     -69.27020000
C      -45.64420000     -31.96350000     -68.84130000
C      -44.71230000     -33.99270000     -69.67090000
H      -46.30460000     -31.29940000     -68.42400000
C      -43.62880000     -33.17690000     -69.55400000
C      -44.33490000     -35.28000000     -70.26890000
C      -42.99410000     -35.41010000     -70.44760000
S      -43.92800000     -31.60650000     -68.90010000
S      -42.18320000     -33.95260000     -69.91710000
H      -42.36850000     -36.23160000     -70.81060000
