40
Properties=species:S:1:pos:R:3 #=T CELL(abcABC):=T 1.889726e+02=T 90.00000=T Traj:=T positionsangstrom=T Step:=T 0=T Bead:=T pbc="F F F"
C      -44.06270000     -32.34550000     -73.40390000
C      -45.12640000     -33.11410000     -73.88950000
C      -46.45560000     -32.80490000     -73.59250000
C      -46.73270000     -31.70450000     -72.72620000
C      -45.66970000     -30.96050000     -72.27140000
C      -44.31230000     -31.29330000     -72.53600000
H      -43.03040000     -32.54270000     -73.66510000
H      -47.17030000     -33.43080000     -74.05490000
H      -45.82630000     -30.14500000     -71.55950000
H      -43.48690000     -30.63530000     -72.05510000
C      -48.16820000     -31.27800000     -72.39480000
H      -48.85570000     -31.70090000     -73.14090000
H      -48.23240000     -30.22380000     -72.40710000
C      -44.91810000     -34.43510000     -74.62910000
H      -45.87750000     -34.67380000     -75.07190000
H      -44.15280000     -34.23910000     -75.37770000
S      -48.71600000     -31.93820000     -70.79040000
S      -44.24840000     -35.88050000     -73.58650000
C      -48.06930000     -33.69410000     -70.87310000
H      -48.91740000     -34.31590000     -71.07810000
H      -47.31890000     -33.66170000     -71.74260000
C      -45.60140000     -35.73790000     -72.26620000
H      -46.51520000     -36.20450000     -72.57950000
H      -45.77390000     -34.61360000     -72.08770000
C      -45.09300000     -36.33490000     -70.89520000
H      -45.89530000     -36.53410000     -70.14370000
H      -44.49680000     -37.19520000     -71.13740000
C      -47.40570000     -34.15030000     -69.53860000
H      -47.27550000     -35.16470000     -69.41430000
H      -47.98640000     -33.73160000     -68.74770000
C      -46.04920000     -33.57150000     -69.43380000
C      -45.96790000     -32.21470000     -69.06140000
C      -44.74700000     -34.07700000     -69.76140000
H      -46.79900000     -31.60530000     -68.62060000
C      -43.73560000     -33.13340000     -69.51850000
C      -44.23210000     -35.33340000     -70.28300000
C      -42.90540000     -35.26770000     -70.44260000
S      -44.30370000     -31.58580000     -69.01210000
S      -42.11110000     -33.72350000     -69.92860000
H      -42.38330000     -36.01400000     -70.97090000
