40
Properties=species:S:1:pos:R:3 #=T CELL(abcABC):=T 1.889726e+02=T 90.00000=T Traj:=T positionsangstrom=T Step:=T 0=T Bead:=T pbc="F F F"
C      -41.70810000     -34.62130000     -72.50750000
C      -43.08650000     -34.37190000     -72.43690000
C      -43.59610000     -33.99330000     -71.16690000
C      -42.81890000     -33.70690000     -70.06870000
C      -41.43500000     -33.94900000     -70.20380000
C      -40.89370000     -34.47230000     -71.44290000
H      -41.32640000     -35.02400000     -73.46560000
H      -44.70500000     -33.97080000     -71.05740000
H      -40.87640000     -33.70510000     -69.33530000
H      -39.88780000     -34.88620000     -71.44650000
C      -43.37550000     -33.30380000     -68.75110000
H      -42.84610000     -33.62880000     -67.84540000
H      -44.33320000     -33.76880000     -68.66100000
C      -44.10340000     -34.81230000     -73.59230000
H      -43.66790000     -35.67830000     -74.05470000
H      -45.03360000     -35.19970000     -73.10110000
S      -43.57320000     -31.51450000     -68.47060000
S      -44.84720000     -33.73980000     -74.92330000
C      -44.32980000     -30.94610000     -70.06720000
H      -44.15320000     -29.84010000     -70.11540000
H      -43.82390000     -31.50710000     -70.87760000
C      -45.22860000     -32.09720000     -73.99970000
H      -44.74650000     -31.26070000     -74.42440000
H      -44.64580000     -32.22150000     -73.06790000
C      -46.65740000     -31.87540000     -73.58220000
H      -46.71040000     -30.94010000     -73.10230000
H      -47.18830000     -31.73160000     -74.56760000
C      -45.83330000     -31.04540000     -70.11950000
H      -46.28560000     -30.49420000     -70.99210000
H      -46.33250000     -30.58280000     -69.25290000
C      -46.50820000     -32.40100000     -70.10930000
C      -46.70110000     -33.06450000     -68.93170000
C      -47.34930000     -32.97320000     -71.18960000
H      -46.31920000     -32.97080000     -67.91150000
C      -48.07720000     -34.05420000     -70.72100000
C      -47.29780000     -32.86200000     -72.69520000
C      -48.08050000     -33.87510000     -73.22330000
S      -47.72380000     -34.46830000     -69.07680000
S      -48.70120000     -35.01750000     -72.05860000
H      -48.25750000     -33.99490000     -74.30100000
