40
Properties=species:S:1:pos:R:3 #=T CELL(abcABC):=T 1.889726e+02=T 90.00000=T Traj:=T positionsangstrom=T Step:=T 0=T Bead:=T pbc="F F F"
C      -42.49260000     -35.72150000     -70.37200000
C      -43.59280000     -35.31390000     -71.10480000
C      -44.70640000     -34.66140000     -70.48390000
C      -44.57870000     -34.22620000     -69.20200000
C      -43.38350000     -34.53090000     -68.48660000
C      -42.35410000     -35.27560000     -69.01580000
H      -41.72440000     -36.24430000     -70.93960000
H      -45.64260000     -34.52370000     -71.11010000
H      -43.28450000     -34.25530000     -67.44040000
H      -41.45610000     -35.46100000     -68.44540000
C      -45.60600000     -33.43620000     -68.51600000
H      -45.81630000     -33.79430000     -67.45000000
H      -46.49480000     -33.28570000     -68.97660000
C      -43.65860000     -35.61820000     -72.53310000
H      -43.35470000     -36.57680000     -72.73490000
H      -44.70650000     -35.44530000     -72.93280000
S      -45.08500000     -31.58450000     -68.20550000
S      -42.71860000     -34.40120000     -73.62330000
C      -44.40460000     -31.00530000     -69.83780000
H      -43.74750000     -30.21800000     -69.62290000
H      -43.73860000     -31.77670000     -70.28420000
C      -43.21540000     -32.82190000     -72.91410000
H      -42.38910000     -32.13870000     -72.89610000
H      -43.42090000     -32.91320000     -71.82660000
C      -44.40890000     -32.21070000     -73.64110000
H      -44.40250000     -31.18430000     -73.37090000
H      -44.09000000     -32.27020000     -74.64250000
C      -45.55580000     -30.53520000     -70.77210000
H      -45.06760000     -30.09590000     -71.60420000
H      -46.14510000     -29.77410000     -70.32130000
C      -46.61370000     -31.57660000     -71.17650000
C      -47.75650000     -31.67820000     -70.43550000
C      -46.62290000     -32.56310000     -72.25000000
H      -48.02230000     -31.11040000     -69.53940000
C      -47.64770000     -33.46940000     -72.21900000
C      -45.75650000     -32.80200000     -73.36020000
C      -46.29190000     -33.77130000     -74.21980000
S      -48.79870000     -33.01270000     -70.98980000
S      -47.71630000     -34.57000000     -73.57740000
H      -45.73310000     -34.33420000     -74.92330000
