40
Properties=species:S:1:pos:R:3 #=T CELL(abcABC):=T 1.889726e+02=T 90.00000=T Traj:=T positionsangstrom=T Step:=T 0=T Bead:=T pbc="F F F"
C      -41.99650000     -35.59610000     -70.74940000
C      -43.21830000     -35.26710000     -71.32040000
C      -44.11800000     -34.43170000     -70.58750000
C      -43.88880000     -34.22630000     -69.25920000
C      -42.72830000     -34.72260000     -68.66150000
C      -41.72910000     -35.33860000     -69.41360000
H      -41.26180000     -36.16220000     -71.27150000
H      -45.02410000     -34.19330000     -71.07710000
H      -42.60250000     -34.40740000     -67.61850000
H      -40.65600000     -35.55870000     -69.08260000
C      -44.87450000     -33.57440000     -68.28260000
H      -44.80830000     -33.68520000     -67.24240000
H      -45.89840000     -33.75140000     -68.55950000
C      -43.50830000     -35.67670000     -72.70210000
H      -42.88070000     -36.54840000     -73.18620000
H      -44.51900000     -35.95650000     -72.79450000
S      -44.55670000     -31.65760000     -68.29700000
S      -43.31310000     -34.32240000     -74.00300000
C      -44.59820000     -31.14960000     -70.07340000
H      -43.78360000     -30.48810000     -70.32240000
H      -44.28670000     -32.01750000     -70.57810000
C      -43.49510000     -32.71770000     -73.21230000
H      -42.66960000     -32.01420000     -73.52700000
H      -43.50610000     -32.80180000     -72.13660000
C      -44.75620000     -31.99140000     -73.61850000
H      -44.82100000     -30.97590000     -73.17200000
H      -44.79850000     -31.69310000     -74.69980000
C      -45.92480000     -30.57790000     -70.64000000
H      -45.58400000     -30.05160000     -71.55490000
H      -46.27840000     -29.82310000     -69.94160000
C      -47.00340000     -31.60610000     -70.92850000
C      -48.07070000     -31.83300000     -70.10070000
C      -46.92920000     -32.44220000     -72.10570000
H      -48.21440000     -31.38500000     -69.15830000
C      -48.03600000     -33.31170000     -72.06160000
C      -46.03530000     -32.70800000     -73.23810000
C      -46.45670000     -33.83810000     -73.88230000
S      -49.06290000     -33.13500000     -70.69680000
S      -47.91850000     -34.52050000     -73.23580000
H      -45.94250000     -34.23220000     -74.79360000
