40
Properties=species:S:1:pos:R:3 #=T CELL(abcABC):=T 1.889726e+02=T 90.00000=T Traj:=T positionsangstrom=T Step:=T 0=T Bead:=T pbc="F F F"
C      -41.98130000     -34.79180000     -71.64570000
C      -43.38470000     -34.80120000     -71.86970000
C      -44.20340000     -34.49480000     -70.77450000
C      -43.64120000     -34.13530000     -69.48860000
C      -42.26240000     -34.23400000     -69.29060000
C      -41.43650000     -34.52370000     -70.42920000
H      -41.33320000     -34.80390000     -72.54620000
H      -45.32050000     -34.48130000     -70.92070000
H      -41.89380000     -34.00750000     -68.33110000
H      -40.37510000     -34.69170000     -70.24630000
C      -44.56870000     -33.80460000     -68.33790000
H      -44.37680000     -34.29260000     -67.35060000
H      -45.53270000     -34.04650000     -68.58180000
C      -43.89860000     -35.25590000     -73.19050000
H      -43.36970000     -36.17310000     -73.50390000
H      -44.97440000     -35.66470000     -72.99260000
S      -44.35510000     -31.96090000     -68.11700000
S      -43.97850000     -34.19640000     -74.71450000
C      -44.14130000     -31.14970000     -69.78160000
H      -43.66100000     -30.21630000     -69.47320000
H      -43.37340000     -31.74420000     -70.38360000
C      -44.16600000     -32.43560000     -74.07420000
H      -43.71300000     -31.83850000     -74.85530000
H      -43.34000000     -32.26030000     -73.34170000
C      -45.64590000     -31.96520000     -73.93940000
H      -45.70680000     -30.95030000     -73.53030000
H      -46.15170000     -32.01160000     -74.90070000
C      -45.39950000     -30.85520000     -70.66140000
H      -45.05850000     -30.78570000     -71.63830000
H      -45.79460000     -29.87020000     -70.28020000
C      -46.41000000     -31.93990000     -70.55500000
C      -47.10250000     -32.23580000     -69.41440000
C      -46.89660000     -32.67310000     -71.71050000
H      -46.90310000     -32.04970000     -68.30670000
C      -47.88200000     -33.57730000     -71.29230000
C      -46.51880000     -32.85290000     -73.09430000
C      -47.14270000     -33.89930000     -73.70080000
S      -48.36220000     -33.45250000     -69.67380000
S      -48.39740000     -34.59640000     -72.65820000
H      -47.12170000     -34.19750000     -74.78730000
