40
Properties=species:S:1:pos:R:3 #=T CELL(abcABC):=T 1.889726e+02=T 90.00000=T Traj:=T positionsangstrom=T Step:=T 0=T Bead:=T pbc="F F F"
C      -42.19150000     -35.79400000     -70.68840000
C      -43.42130000     -35.31170000     -71.23290000
C      -44.32560000     -34.65020000     -70.41480000
C      -44.03990000     -34.33290000     -69.09850000
C      -42.83010000     -34.75400000     -68.56230000
C      -41.90840000     -35.54750000     -69.33290000
H      -41.51490000     -36.30810000     -71.27540000
H      -45.18170000     -34.20410000     -70.92430000
H      -42.62800000     -34.58220000     -67.57560000
H      -40.91590000     -35.90870000     -68.91210000
C      -45.06740000     -33.41860000     -68.41040000
H      -45.11210000     -33.64500000     -67.38200000
H      -46.08060000     -33.72260000     -68.91830000
C      -43.74910000     -35.58340000     -72.64780000
H      -43.30110000     -36.56400000     -72.99570000
H      -44.78460000     -35.63840000     -72.82660000
S      -44.81320000     -31.64700000     -68.32130000
S      -42.97500000     -34.41390000     -73.99200000
C      -44.62010000     -31.02990000     -70.15900000
H      -43.79880000     -30.26600000     -70.02280000
H      -44.33070000     -31.88790000     -70.67220000
C      -43.31790000     -32.75450000     -73.13770000
H      -42.39440000     -32.17040000     -73.36600000
H      -43.05670000     -32.82520000     -72.05730000
C      -44.68810000     -32.00860000     -73.44790000
H      -44.71490000     -31.10480000     -72.91690000
H      -44.58240000     -31.83300000     -74.50250000
C      -45.91110000     -30.42390000     -70.64350000
H      -45.72070000     -29.78800000     -71.50160000
H      -46.33680000     -29.67690000     -69.95530000
C      -46.93350000     -31.49350000     -71.02260000
C      -48.08390000     -31.61300000     -70.27530000
C      -46.69590000     -32.54070000     -72.01760000
H      -48.27620000     -31.07210000     -69.39340000
C      -47.78230000     -33.44190000     -71.96580000
C      -45.95100000     -32.69010000     -73.21290000
C      -46.39030000     -33.73720000     -73.99390000
S      -48.97350000     -33.06070000     -70.79680000
S      -47.85060000     -34.48490000     -73.35300000
H      -45.96760000     -34.08120000     -75.01570000
