40
Properties=species:S:1:pos:R:3 #=T CELL(abcABC):=T 1.889726e+02=T 90.00000=T Traj:=T positionsangstrom=T Step:=T 0=T Bead:=T pbc="F F F"
C      -41.89750000     -34.94750000     -71.55840000
C      -43.24070000     -35.07750000     -71.78930000
C      -44.13080000     -34.62970000     -70.77520000
C      -43.66860000     -34.20980000     -69.51030000
C      -42.28480000     -34.06820000     -69.30800000
C      -41.40510000     -34.42710000     -70.35320000
H      -41.18520000     -35.30240000     -72.28160000
H      -45.15010000     -34.64010000     -71.01360000
H      -41.83150000     -33.75970000     -68.39500000
H      -40.35480000     -34.08500000     -70.32430000
C      -44.69500000     -33.73570000     -68.47780000
H      -44.54000000     -34.30260000     -67.55250000
H      -45.68940000     -34.10450000     -68.97130000
C      -43.83340000     -35.52470000     -73.09910000
H      -43.24060000     -36.41360000     -73.40350000
H      -44.84720000     -35.72760000     -72.99590000
S      -44.54810000     -31.96830000     -67.97150000
S      -43.61490000     -34.18610000     -74.53290000
C      -44.14700000     -31.20880000     -69.68100000
H      -43.50530000     -30.30920000     -69.59890000
H      -43.63440000     -31.91620000     -70.19920000
C      -44.00690000     -32.61010000     -73.75770000
H      -43.41200000     -31.85150000     -74.32510000
H      -43.92050000     -32.60160000     -72.72740000
C      -45.47910000     -32.10100000     -73.93670000
H      -45.47610000     -31.09910000     -73.50190000
H      -45.70200000     -31.90510000     -74.94940000
C      -45.36140000     -30.81000000     -70.56370000
H      -44.91320000     -30.65140000     -71.57100000
H      -45.86050000     -29.85980000     -70.40440000
C      -46.50680000     -31.82030000     -70.67390000
C      -47.32410000     -32.02340000     -69.60730000
C      -46.89860000     -32.61300000     -71.82820000
H      -47.25650000     -31.49880000     -68.68220000
C      -47.89770000     -33.53700000     -71.44480000
C      -46.57810000     -32.81420000     -73.23440000
C      -47.33600000     -33.80220000     -73.79060000
S      -48.48670000     -33.35750000     -69.89680000
S      -48.45210000     -34.56030000     -72.71980000
H      -47.09140000     -34.32360000     -74.77370000
