40
Properties=species:S:1:pos:R:3 #=T CELL(abcABC):=T 1.889726e+02=T 90.00000=T Traj:=T positionsangstrom=T Step:=T 0=T Bead:=T pbc="F F F"
C      -43.79410000     -32.68500000     -73.46240000
C      -44.53910000     -33.75530000     -73.91890000
C      -45.94160000     -33.65120000     -73.86920000
C      -46.66220000     -32.62070000     -73.26440000
C      -45.81660000     -31.46950000     -72.84780000
C      -44.46440000     -31.54890000     -72.95530000
H      -42.67570000     -32.75630000     -73.32510000
H      -46.51570000     -34.46840000     -74.25540000
H      -46.33390000     -30.61290000     -72.44550000
H      -43.80880000     -30.65170000     -72.83850000
C      -48.15390000     -32.50910000     -73.07070000
H      -48.67820000     -32.83780000     -73.97240000
H      -48.38660000     -31.38690000     -72.98650000
C      -43.98050000     -35.07310000     -74.27840000
H      -44.71470000     -35.74470000     -74.81290000
H      -43.12960000     -35.10110000     -74.95140000
S      -48.81660000     -33.14870000     -71.51440000
S      -43.31780000     -35.96280000     -72.80950000
C      -47.68970000     -34.52000000     -70.90600000
H      -48.17620000     -35.48880000     -71.17520000
H      -46.75660000     -34.42300000     -71.42820000
C      -44.87140000     -36.20950000     -71.76240000
H      -45.21790000     -37.23200000     -71.99380000
H      -45.47850000     -35.43000000     -72.23850000
C      -44.58480000     -35.91510000     -70.28650000
H      -45.57600000     -36.12130000     -69.87930000
H      -43.81620000     -36.60850000     -69.94640000
C      -47.41530000     -34.30690000     -69.42480000
H      -46.96670000     -35.16140000     -69.09360000
H      -48.36310000     -34.03460000     -68.91970000
C      -46.43350000     -33.16130000     -69.30600000
C      -46.80990000     -31.89690000     -69.02190000
C      -45.04470000     -33.36450000     -69.51640000
H      -47.82000000     -31.54480000     -68.96730000
C      -44.32790000     -32.18000000     -69.40360000
C      -44.15000000     -34.46510000     -70.02920000
C      -42.89030000     -33.97210000     -70.24020000
S      -45.37380000     -30.81700000     -69.08690000
S      -42.67460000     -32.26710000     -69.88980000
H      -42.06500000     -34.60320000     -70.60780000
