40
Properties=species:S:1:pos:R:3 #=T CELL(abcABC):=T 1.889726e+02=T 90.00000=T Traj:=T positionsangstrom=T Step:=T 0=T Bead:=T pbc="F F F"
C      -49.20310000     -33.31170000     -71.75540000
C      -48.49180000     -32.90320000     -72.94620000
C      -47.83740000     -31.65440000     -72.87290000
C      -47.74100000     -30.89890000     -71.75910000
C      -48.44150000     -31.31850000     -70.61620000
C      -49.08380000     -32.54980000     -70.60770000
H      -49.77440000     -34.28730000     -71.86890000
H      -47.29790000     -31.20680000     -73.76440000
H      -48.48210000     -30.61610000     -69.76530000
H      -49.65810000     -32.91700000     -69.75090000
C      -46.91490000     -29.60980000     -71.72690000
H      -47.28700000     -29.07760000     -70.84580000
H      -47.12170000     -28.96740000     -72.65400000
C      -48.47790000     -33.91450000     -74.15630000
H      -49.22840000     -34.72510000     -73.89890000
H      -48.74760000     -33.45590000     -75.11360000
S      -45.06300000     -29.82570000     -71.78240000
S      -46.85960000     -34.66760000     -74.55360000
C      -44.65880000     -31.19460000     -70.50090000
H      -44.67630000     -30.62410000     -69.56770000
H      -45.49010000     -31.96640000     -70.36240000
C      -46.32730000     -35.26810000     -72.92620000
H      -45.64610000     -36.14130000     -73.07130000
H      -47.11400000     -35.55070000     -72.19010000
C      -45.39520000     -34.21990000     -72.16230000
H      -44.81130000     -33.57790000     -72.82950000
H      -46.02430000     -33.53990000     -71.52910000
C      -43.31960000     -31.75450000     -70.88700000
H      -42.53970000     -31.04250000     -71.06080000
H      -43.47750000     -32.07430000     -71.97460000
C      -42.85300000     -32.95170000     -70.14540000
C      -41.86310000     -33.00830000     -69.11210000
C      -43.32740000     -34.32030000     -70.42030000
H      -41.50540000     -32.07630000     -68.70540000
C      -42.75050000     -35.26580000     -69.56760000
C      -44.42830000     -34.94140000     -71.23730000
C      -44.54960000     -36.29750000     -70.92010000
S      -41.51660000     -34.59680000     -68.53080000
S      -43.40800000     -36.87250000     -69.75500000
H      -45.25860000     -36.91330000     -71.50910000
