40
Properties=species:S:1:pos:R:3 #=T CELL(abcABC):=T 1.889726e+02=T 90.00000=T Traj:=T positionsangstrom=T Step:=T 0=T Bead:=T pbc="F F F"
C      -41.84670000     -35.52300000     -70.85350000
C      -43.10890000     -35.25090000     -71.44040000
C      -44.05320000     -34.70450000     -70.55160000
C      -43.79440000     -34.28300000     -69.22720000
C      -42.50750000     -34.50070000     -68.75730000
C      -41.54800000     -35.11140000     -69.52910000
H      -40.97930000     -35.95430000     -71.45500000
H      -45.08830000     -34.47070000     -70.98170000
H      -42.23420000     -34.31770000     -67.64690000
H      -40.65830000     -35.53370000     -69.09210000
C      -44.87210000     -33.56070000     -68.41930000
H      -44.97430000     -34.02840000     -67.35940000
H      -45.78760000     -33.68920000     -68.93340000
C      -43.62350000     -35.51320000     -72.87960000
H      -43.20380000     -36.45030000     -73.22400000
H      -44.70730000     -35.71550000     -72.69340000
S      -44.46360000     -31.69930000     -68.25180000
S      -43.36130000     -34.26190000     -74.18500000
C      -44.54290000     -31.13820000     -69.98190000
H      -43.88450000     -30.21970000     -70.07580000
H      -44.13110000     -31.96250000     -70.66020000
C      -43.58240000     -32.62140000     -73.38230000
H      -42.75830000     -32.01400000     -73.76920000
H      -43.39210000     -32.85710000     -72.35660000
C      -44.94290000     -31.95340000     -73.58040000
H      -44.90020000     -31.08330000     -72.91160000
H      -44.99630000     -31.62150000     -74.60530000
C      -45.89740000     -30.64560000     -70.51780000
H      -45.70140000     -30.07240000     -71.41080000
H      -46.32210000     -29.99450000     -69.68300000
C      -46.95010000     -31.72960000     -70.78840000
C      -48.04690000     -31.83600000     -69.98590000
C      -46.93640000     -32.55440000     -71.99010000
H      -48.33500000     -31.09730000     -69.18280000
C      -48.02350000     -33.42190000     -71.90510000
C      -46.04730000     -32.88930000     -73.10610000
C      -46.54700000     -33.85230000     -73.91930000
S      -49.13770000     -33.10010000     -70.55550000
S      -48.05550000     -34.55920000     -73.24440000
H      -46.08220000     -34.18760000     -74.80550000
