40
Properties=species:S:1:pos:R:3 #=T CELL(abcABC):=T 1.889726e+02=T 90.00000=T Traj:=T positionsangstrom=T Step:=T 0=T Bead:=T pbc="F F F"
C      -42.52000000     -35.62440000     -70.13450000
C      -43.69840000     -35.31500000     -70.95340000
C      -44.79930000     -34.70350000     -70.41950000
C      -44.71650000     -34.31410000     -69.08990000
C      -43.55160000     -34.55230000     -68.31610000
C      -42.42640000     -35.21960000     -68.82860000
H      -41.71630000     -36.19730000     -70.61050000
H      -45.54920000     -34.35820000     -71.17110000
H      -43.58800000     -34.13280000     -67.30180000
H      -41.50330000     -35.31040000     -68.17660000
C      -45.73600000     -33.33050000     -68.44480000
H      -45.88390000     -33.72220000     -67.41050000
H      -46.77380000     -33.32700000     -68.83500000
C      -43.69840000     -35.65700000     -72.41470000
H      -43.17150000     -36.65740000     -72.58340000
H      -44.67960000     -35.81240000     -72.76470000
S      -45.16440000     -31.60250000     -68.15890000
S      -42.65720000     -34.45510000     -73.41640000
C      -44.38840000     -31.11310000     -69.83840000
H      -43.70800000     -30.25650000     -69.66180000
H      -43.81110000     -31.94270000     -70.32730000
C      -43.14690000     -32.74210000     -73.03620000
H      -42.21650000     -32.13420000     -73.32290000
H      -43.22000000     -32.68310000     -71.94540000
C      -44.29500000     -32.23180000     -73.84190000
H      -44.37740000     -31.10130000     -73.80440000
H      -44.16870000     -32.43310000     -74.93420000
C      -45.41500000     -30.62000000     -70.90580000
H      -44.92930000     -30.23840000     -71.83110000
H      -45.80130000     -29.61630000     -70.52900000
C      -46.56230000     -31.53440000     -71.31680000
C      -47.70440000     -31.66040000     -70.51970000
C      -46.52830000     -32.48860000     -72.39820000
H      -47.73610000     -31.49970000     -69.45980000
C      -47.66520000     -33.32620000     -72.42270000
C      -45.64070000     -32.83250000     -73.51810000
C      -46.16220000     -33.92270000     -74.20210000
S      -48.75920000     -33.00830000     -71.10380000
S      -47.75860000     -34.50230000     -73.67300000
H      -45.64110000     -34.32970000     -75.05460000
