40
Properties=species:S:1:pos:R:3 #=T CELL(abcABC):=T 1.889726e+02=T 90.00000=T Traj:=T positionsangstrom=T Step:=T 0=T Bead:=T pbc="F F F"
C      -43.47350000     -32.72970000     -72.89270000
C      -44.47550000     -33.57550000     -73.47650000
C      -45.77670000     -33.06380000     -73.63270000
C      -46.15480000     -31.86420000     -72.97480000
C      -45.17340000     -30.97580000     -72.54270000
C      -43.84460000     -31.41240000     -72.53720000
H      -42.43440000     -33.06670000     -72.86390000
H      -46.50840000     -33.77960000     -74.08160000
H      -45.53420000     -30.01020000     -72.10590000
H      -43.02160000     -30.72200000     -72.31530000
C      -47.65220000     -31.61960000     -72.81580000
H      -48.09270000     -31.29890000     -73.76250000
H      -47.90720000     -30.82450000     -72.02480000
C      -44.16820000     -34.88700000     -74.17520000
H      -44.66200000     -35.05310000     -75.11530000
H      -43.12380000     -34.88530000     -74.39640000
S      -48.58970000     -33.17260000     -72.28440000
S      -44.55710000     -36.45840000     -73.05490000
C      -48.56010000     -32.74550000     -70.47900000
H      -48.46050000     -31.67280000     -70.46290000
H      -49.59690000     -32.86140000     -70.11930000
C      -45.95640000     -36.00790000     -71.92150000
H      -46.83740000     -36.59650000     -72.10800000
H      -46.22760000     -35.02390000     -72.26780000
C      -45.51340000     -36.17700000     -70.36660000
H      -46.37230000     -36.28670000     -69.67310000
H      -44.84430000     -37.09550000     -70.37740000
C      -47.68420000     -33.46750000     -69.51130000
H      -47.71210000     -34.52710000     -69.65870000
H      -48.13760000     -33.29940000     -68.48840000
C      -46.30750000     -32.83020000     -69.48680000
C      -46.14130000     -31.47440000     -69.26770000
C      -45.09290000     -33.47200000     -69.80860000
H      -46.93720000     -30.73450000     -69.08820000
C      -43.96520000     -32.69300000     -69.51110000
C      -44.66670000     -34.90560000     -69.97290000
C      -43.32970000     -35.00570000     -70.04060000
S      -44.36110000     -30.98040000     -69.22300000
S      -42.38840000     -33.56180000     -69.69520000
H      -42.81320000     -35.95350000     -70.10920000
