40
Properties=species:S:1:pos:R:3 #=T CELL(abcABC):=T 1.889726e+02=T 90.00000=T Traj:=T positionsangstrom=T Step:=T 0=T Bead:=T pbc="F F F"
C      -43.94810000     -32.23040000     -72.83010000
C      -44.46220000     -33.51640000     -73.08550000
C      -45.78960000     -33.52440000     -73.40600000
C      -46.62290000     -32.41790000     -73.48290000
C      -46.09350000     -31.15200000     -73.23300000
C      -44.65990000     -31.08480000     -72.92450000
H      -42.89570000     -32.00770000     -72.62640000
H      -46.21850000     -34.58950000     -73.53660000
H      -46.75620000     -30.26780000     -73.37450000
H      -44.12990000     -30.16860000     -72.67580000
C      -48.05530000     -32.56400000     -73.78260000
H      -48.18640000     -33.34040000     -74.57760000
H      -48.55760000     -31.56730000     -73.97940000
C      -43.60460000     -34.73120000     -73.18140000
H      -43.09320000     -34.84140000     -74.10430000
H      -42.84730000     -34.60490000     -72.43540000
S      -49.02680000     -33.33230000     -72.43430000
S      -44.47360000     -36.39870000     -73.01440000
C      -48.41260000     -32.64120000     -70.84790000
H      -47.93690000     -31.64790000     -70.90330000
H      -49.27380000     -32.50210000     -70.16220000
C      -45.63040000     -36.33030000     -71.52900000
H      -46.19210000     -37.28840000     -71.50710000
H      -46.30790000     -35.53850000     -71.86280000
C      -45.08530000     -36.06790000     -70.10330000
H      -45.93030000     -36.18880000     -69.39570000
H      -44.36290000     -36.82770000     -69.74280000
C      -47.26950000     -33.53620000     -70.26870000
H      -46.88120000     -34.01530000     -71.13780000
H      -47.72440000     -34.45610000     -69.73150000
C      -46.06750000     -32.85100000     -69.72900000
C      -46.01870000     -31.47450000     -69.52010000
C      -44.75450000     -33.42660000     -69.71550000
H      -46.81760000     -30.71060000     -69.51730000
C      -43.80370000     -32.53820000     -69.29120000
C      -44.28710000     -34.77520000     -69.89780000
C      -42.91020000     -34.73550000     -69.63810000
S      -44.42170000     -30.89720000     -69.11850000
S      -42.23690000     -33.20880000     -69.23250000
H      -42.24870000     -35.59840000     -69.76570000
