40
Properties=species:S:1:pos:R:3 #=T CELL(abcABC):=T 1.889726e+02=T 90.00000=T Traj:=T positionsangstrom=T Step:=T 0=T Bead:=T pbc="F F F"
C      -43.51810000     -32.52180000     -72.91640000
C      -44.37740000     -33.52970000     -73.39200000
C      -45.79820000     -33.31440000     -73.40510000
C      -46.28380000     -32.07450000     -72.89670000
C      -45.40220000     -31.10350000     -72.41630000
C      -44.01710000     -31.27080000     -72.50180000
H      -42.47000000     -32.80140000     -72.76500000
H      -46.51190000     -33.90520000     -73.95400000
H      -45.82770000     -30.15140000     -72.14170000
H      -43.45870000     -30.42820000     -72.25440000
C      -47.74560000     -31.76260000     -73.00640000
H      -47.92370000     -31.66040000     -74.06870000
H      -47.99350000     -30.76550000     -72.57210000
C      -43.78940000     -34.83230000     -73.78050000
H      -43.93600000     -35.20180000     -74.78760000
H      -42.67400000     -34.70800000     -73.62130000
S      -48.86380000     -33.04570000     -72.33940000
S      -44.44750000     -36.29990000     -72.85750000
C      -48.76410000     -32.89160000     -70.50440000
H      -48.64170000     -31.83390000     -70.27820000
H      -49.78430000     -33.25300000     -70.16140000
C      -45.89370000     -35.90610000     -71.81360000
H      -46.73710000     -36.55390000     -72.23020000
H      -46.20240000     -34.84090000     -71.99650000
C      -45.51760000     -36.09800000     -70.27080000
H      -46.49210000     -36.15090000     -69.67560000
H      -44.88040000     -36.95100000     -70.08850000
C      -47.61830000     -33.61190000     -69.81500000
H      -47.50080000     -34.60190000     -70.18270000
H      -47.85640000     -33.79710000     -68.72900000
C      -46.24700000     -32.85860000     -69.86700000
C      -46.05840000     -31.53040000     -69.49570000
C      -44.95220000     -33.51560000     -69.96080000
H      -46.78890000     -30.78310000     -69.12540000
C      -43.86500000     -32.69060000     -69.71930000
C      -44.60580000     -34.91010000     -70.05050000
C      -43.26430000     -35.04490000     -69.87720000
S      -44.35730000     -31.09040000     -69.31870000
S      -42.32870000     -33.50310000     -69.66060000
H      -42.93120000     -36.07560000     -69.68750000
