40
Properties=species:S:1:pos:R:3 #=T CELL(abcABC):=T 1.889726e+02=T 90.00000=T Traj:=T positionsangstrom=T Step:=T 0=T Bead:=T pbc="F F F"
C      -43.36870000     -33.14030000     -73.69760000
C      -44.60620000     -33.76600000     -74.09120000
C      -45.83190000     -33.09890000     -73.81040000
C      -45.86680000     -32.00540000     -72.96440000
C      -44.68550000     -31.40250000     -72.53670000
C      -43.45070000     -31.97060000     -72.89030000
H      -42.42050000     -33.71110000     -73.76670000
H      -46.76720000     -33.43760000     -74.27360000
H      -44.70070000     -30.58730000     -71.86720000
H      -42.46640000     -31.63310000     -72.59350000
C      -47.23660000     -31.46810000     -72.44170000
H      -47.63150000     -30.74650000     -73.23530000
H      -46.94410000     -30.88200000     -71.61220000
C      -44.56020000     -35.17290000     -74.66430000
H      -45.41910000     -35.28790000     -75.24740000
H      -43.67710000     -35.50290000     -75.24000000
S      -48.48270000     -32.81120000     -72.02060000
S      -44.58410000     -36.30400000     -73.22160000
C      -48.65540000     -32.41920000     -70.21300000
H      -48.41520000     -31.40540000     -70.04580000
H      -49.69960000     -32.56080000     -69.89890000
C      -46.04080000     -35.78650000     -72.18590000
H      -47.04300000     -36.16140000     -72.41500000
H      -46.13050000     -34.71530000     -72.46240000
C      -45.71830000     -35.94360000     -70.75150000
H      -46.71610000     -35.90780000     -70.21090000
H      -45.22220000     -36.94900000     -70.53710000
C      -47.76740000     -33.34940000     -69.40610000
H      -47.70550000     -34.32990000     -69.94010000
H      -48.19350000     -33.61430000     -68.37710000
C      -46.41320000     -32.82170000     -69.31740000
C      -46.12250000     -31.69270000     -68.55080000
C      -45.18890000     -33.47570000     -69.71830000
H      -46.80810000     -31.10850000     -67.95490000
C      -44.04880000     -32.63080000     -69.51370000
C      -44.80120000     -34.73750000     -70.27330000
C      -43.45030000     -34.88560000     -70.26330000
S      -44.39760000     -31.22100000     -68.54880000
S      -42.48960000     -33.49880000     -69.72220000
H      -42.89080000     -35.66150000     -70.66380000
