40
Properties=species:S:1:pos:R:3 #=T CELL(abcABC):=T 1.889726e+02=T 90.00000=T Traj:=T positionsangstrom=T Step:=T 0=T Bead:=T pbc="F F F"
C      -43.50430000     -36.01170000     -69.28610000
C      -44.43370000     -35.44870000     -70.17320000
C      -45.23260000     -34.35750000     -69.77300000
C      -45.23050000     -33.84690000     -68.46740000
C      -44.38750000     -34.49650000     -67.55620000
C      -43.50010000     -35.55220000     -67.97000000
H      -42.79080000     -36.75320000     -69.66300000
H      -45.94610000     -33.94130000     -70.47870000
H      -44.25080000     -34.23410000     -66.51580000
H      -42.72220000     -36.06970000     -67.34440000
C      -46.20950000     -32.78320000     -68.02790000
H      -46.09700000     -32.87280000     -67.00360000
H      -47.24330000     -33.04530000     -68.26950000
C      -44.32200000     -35.89960000     -71.62730000
H      -44.18990000     -36.96710000     -71.67300000
H      -45.17850000     -35.60210000     -72.25840000
S      -45.96600000     -31.05480000     -68.59460000
S      -42.84200000     -35.32060000     -72.43540000
C      -44.69220000     -31.04910000     -69.92160000
H      -43.99670000     -30.23840000     -69.63430000
H      -44.21050000     -31.99000000     -69.97720000
C      -42.79100000     -33.53710000     -72.05680000
H      -41.84760000     -33.24720000     -71.63360000
H      -43.44840000     -33.34080000     -71.22200000
C      -43.22100000     -32.69070000     -73.26810000
H      -43.20440000     -31.62360000     -73.02620000
H      -42.74530000     -32.96260000     -74.09290000
C      -45.15680000     -30.50840000     -71.29670000
H      -44.33270000     -30.50710000     -71.92240000
H      -45.56490000     -29.48740000     -71.20240000
C      -46.19640000     -31.42050000     -71.98470000
C      -47.49860000     -31.31030000     -71.65560000
C      -45.88540000     -32.45470000     -72.96810000
H      -48.07980000     -30.56260000     -71.01280000
C      -47.09320000     -33.16960000     -73.24970000
C      -44.72690000     -32.99520000     -73.56490000
C      -45.06770000     -34.07970000     -74.33590000
S      -48.52880000     -32.55910000     -72.43590000
S      -46.76060000     -34.39990000     -74.41050000
H      -44.42940000     -34.70450000     -75.03390000
