40
Properties=species:S:1:pos:R:3 #=T CELL(abcABC):=T 1.889726e+02=T 90.00000=T Traj:=T positionsangstrom=T Step:=T 0=T Bead:=T pbc="F F F"
C      -43.59220000     -34.57070000     -67.73410000
C      -42.88330000     -34.57460000     -68.97490000
C      -42.64250000     -33.34310000     -69.59860000
C      -43.17730000     -32.15970000     -69.06820000
C      -43.92390000     -32.19840000     -67.88380000
C      -44.10890000     -33.38290000     -67.23290000
H      -43.64870000     -35.47460000     -67.13990000
H      -42.20950000     -33.39360000     -70.58820000
H      -44.46980000     -31.31410000     -67.62190000
H      -44.68990000     -33.42010000     -66.29810000
C      -42.92630000     -30.72730000     -69.68660000
H      -41.93150000     -30.36790000     -69.38940000
H      -43.73900000     -30.11140000     -69.33810000
C      -42.36790000     -35.80450000     -69.77480000
H      -41.25760000     -35.84550000     -69.70170000
H      -42.66320000     -36.81960000     -69.36900000
S      -42.95840000     -30.83930000     -71.55200000
S      -42.84070000     -35.73120000     -71.64150000
C      -44.73620000     -31.17220000     -71.84810000
H      -45.05060000     -31.82600000     -70.96320000
H      -45.31040000     -30.23370000     -71.86330000
C      -44.67500000     -35.82970000     -71.55840000
H      -44.93030000     -36.70550000     -70.95360000
H      -45.02240000     -36.21350000     -72.49160000
C      -45.42490000     -34.55320000     -71.10890000
H      -45.39490000     -34.51210000     -70.00510000
H      -44.73510000     -33.66290000     -71.38890000
C      -45.01910000     -32.00920000     -73.16880000
H      -44.40520000     -32.93770000     -73.20920000
H      -44.70450000     -31.30980000     -73.95780000
C      -46.42530000     -32.34880000     -73.28390000
C      -47.26770000     -31.57440000     -74.01580000
C      -47.13250000     -33.42470000     -72.60710000
H      -46.94210000     -30.92160000     -74.75960000
C      -48.47810000     -33.41560000     -72.89180000
C      -46.82750000     -34.44800000     -71.62950000
C      -47.84210000     -35.28170000     -71.35590000
S      -48.91780000     -32.26570000     -74.06130000
S      -49.31220000     -34.70340000     -72.10250000
H      -47.75700000     -36.00180000     -70.62690000
