40
Properties=species:S:1:pos:R:3 #=T CELL(abcABC):=T 1.889726e+02=T 90.00000=T Traj:=T positionsangstrom=T Step:=T 0=T Bead:=T pbc="F F F"
C      -41.94040000     -32.16320000     -72.83690000
C      -42.00210000     -32.41080000     -71.46870000
C      -42.92760000     -31.62190000     -70.69770000
C      -43.61630000     -30.51440000     -71.24410000
C      -43.43320000     -30.23050000     -72.63760000
C      -42.55100000     -31.02860000     -73.40890000
H      -41.12110000     -32.64850000     -73.41840000
H      -43.21730000     -31.81160000     -69.69200000
H      -43.90090000     -29.30970000     -73.01560000
H      -42.50640000     -30.74770000     -74.46690000
C      -44.47890000     -29.62690000     -70.43260000
H      -44.22480000     -28.55000000     -70.50360000
H      -44.48450000     -29.95420000     -69.36870000
C      -41.19940000     -33.51710000     -70.89890000
H      -40.31170000     -33.65940000     -71.46040000
H      -40.95860000     -33.36080000     -69.84580000
S      -46.15880000     -29.59120000     -71.13750000
S      -42.00160000     -35.25350000     -71.07770000
C      -46.84020000     -31.25720000     -71.41890000
H      -47.86970000     -31.12200000     -71.80100000
H      -46.32770000     -31.76580000     -72.24890000
C      -43.69920000     -34.85640000     -70.67710000
H      -43.67120000     -34.24220000     -69.77400000
H      -44.11350000     -35.83900000     -70.34550000
C      -44.53980000     -34.31390000     -71.87680000
H      -44.83890000     -33.32370000     -71.82750000
H      -43.98330000     -34.47670000     -72.83330000
C      -46.77890000     -32.14890000     -70.13370000
H      -47.26390000     -31.65140000     -69.25350000
H      -45.66140000     -32.22950000     -70.01060000
C      -47.36430000     -33.53750000     -70.25550000
C      -48.59150000     -33.75350000     -69.71740000
C      -46.90550000     -34.67530000     -71.09910000
H      -49.14050000     -33.10030000     -69.02510000
C      -47.95880000     -35.62470000     -71.16680000
C      -45.83880000     -35.08360000     -71.96830000
C      -45.99650000     -36.32180000     -72.59330000
S      -49.32710000     -35.24670000     -70.32460000
S      -47.58330000     -37.00990000     -72.26660000
H      -45.34850000     -36.87710000     -73.16760000
