40
Properties=species:S:1:pos:R:3 #=T CELL(abcABC):=T 1.889726e+02=T 90.00000=T Traj:=T positionsangstrom=T Step:=T 0=T Bead:=T pbc="F F F"
C      -43.71450000     -35.72200000     -68.76500000
C      -44.40090000     -35.39590000     -69.90950000
C      -45.47630000     -34.46570000     -69.85500000
C      -45.78070000     -33.90220000     -68.63570000
C      -45.00630000     -34.23090000     -67.43400000
C      -44.09740000     -35.25930000     -67.45660000
H      -42.83300000     -36.39550000     -69.01140000
H      -46.14410000     -34.31760000     -70.67750000
H      -45.15940000     -33.72720000     -66.50250000
H      -43.66330000     -35.67600000     -66.58380000
C      -46.79210000     -32.84710000     -68.59480000
H      -47.32510000     -32.63370000     -67.65210000
H      -47.43700000     -32.82450000     -69.45770000
C      -43.96670000     -36.08080000     -71.26690000
H      -43.84660000     -37.14800000     -71.17650000
H      -44.76750000     -35.91500000     -71.97170000
S      -45.80590000     -31.20490000     -68.46620000
S      -42.47260000     -35.38750000     -72.02940000
C      -44.46260000     -31.18430000     -69.69220000
H      -43.63680000     -30.62820000     -69.26810000
H      -44.07480000     -32.22790000     -69.69360000
C      -42.91130000     -33.49170000     -71.99220000
H      -41.97100000     -33.06420000     -71.63250000
H      -43.69580000     -33.33320000     -71.31770000
C      -43.22540000     -32.97080000     -73.37880000
H      -42.96690000     -31.91510000     -73.50000000
H      -42.68090000     -33.57930000     -74.13260000
C      -44.85800000     -30.86200000     -71.16960000
H      -44.00110000     -31.01960000     -71.80040000
H      -45.20500000     -29.90210000     -71.20070000
C      -45.98950000     -31.62460000     -71.90860000
C      -47.32060000     -31.52310000     -71.56080000
C      -45.77770000     -32.45100000     -73.07000000
H      -47.77500000     -30.94600000     -70.64480000
C      -47.00140000     -32.89270000     -73.64370000
C      -44.69000000     -33.17150000     -73.72090000
C      -45.07170000     -33.98700000     -74.74200000
S      -48.40120000     -32.37360000     -72.72070000
S      -46.85100000     -34.14720000     -74.81410000
H      -44.52130000     -34.55490000     -75.45400000
