40
Properties=species:S:1:pos:R:3 #=T CELL(abcABC):=T 1.889726e+02=T 90.00000=T Traj:=T positionsangstrom=T Step:=T 0=T Bead:=T pbc="F F F"
C      -43.64310000     -34.55690000     -68.39050000
C      -42.69440000     -34.49790000     -69.47020000
C      -42.26650000     -33.27560000     -70.03260000
C      -42.89160000     -32.07890000     -69.62000000
C      -43.78560000     -32.09570000     -68.52100000
C      -44.12200000     -33.32670000     -67.94350000
H      -44.06710000     -35.44190000     -68.01750000
H      -41.56440000     -33.28650000     -70.85590000
H      -44.27010000     -31.22990000     -68.13920000
H      -44.93230000     -33.32180000     -67.15390000
C      -42.53050000     -30.68310000     -70.17090000
H      -41.47040000     -30.54600000     -70.13790000
H      -42.83490000     -29.89960000     -69.46910000
C      -42.06880000     -35.80920000     -69.89080000
H      -41.00120000     -35.76030000     -70.12720000
H      -42.19440000     -36.52090000     -69.10780000
S      -43.15530000     -30.31530000     -71.95010000
S      -42.69070000     -36.40580000     -71.51400000
C      -44.99920000     -30.57370000     -71.71810000
H      -45.20470000     -30.94170000     -70.69710000
H      -45.47710000     -29.58030000     -71.69530000
C      -44.58350000     -36.10660000     -71.41640000
H      -44.94950000     -36.32560000     -70.42820000
H      -44.95440000     -36.85080000     -72.05460000
C      -45.02090000     -34.71410000     -71.92380000
H      -44.58920000     -33.96350000     -71.23510000
H      -44.61010000     -34.63810000     -72.99590000
C      -45.39670000     -31.53970000     -72.85700000
H      -44.73430000     -32.40500000     -72.80350000
H      -45.19870000     -30.92850000     -73.71910000
C      -46.87190000     -32.01250000     -72.74860000
C      -47.96660000     -31.23280000     -72.84900000
C      -47.18920000     -33.40540000     -72.39650000
H      -47.75350000     -30.17710000     -73.16060000
C      -48.58130000     -33.58350000     -72.43160000
C      -46.51910000     -34.62930000     -71.99530000
C      -47.39150000     -35.65690000     -71.78390000
S      -49.49510000     -32.12600000     -72.83740000
S      -49.08960000     -35.16420000     -71.92060000
H      -47.34230000     -36.64030000     -71.36730000
