40
Properties=species:S:1:pos:R:3 #=T CELL(abcABC):=T 1.889726e+02=T 90.00000=T Traj:=T positionsangstrom=T Step:=T 0=T Bead:=T pbc="F F F"
C      -43.90040000     -34.27190000     -67.94280000
C      -43.10730000     -34.44530000     -69.12230000
C      -42.65190000     -33.26910000     -69.81300000
C      -42.87470000     -31.97450000     -69.28430000
C      -43.48160000     -31.93140000     -68.03350000
C      -44.11130000     -33.01130000     -67.34420000
H      -44.24600000     -35.20260000     -67.47680000
H      -42.13020000     -33.37940000     -70.77560000
H      -43.62780000     -30.93800000     -67.62510000
H      -44.57770000     -32.73290000     -66.43200000
C      -42.36530000     -30.77220000     -70.05420000
H      -41.31200000     -30.81560000     -70.12060000
H      -42.59370000     -29.77740000     -69.61260000
C      -42.90870000     -35.85140000     -69.59540000
H      -41.92670000     -36.19450000     -69.27630000
H      -43.73410000     -36.52640000     -69.35050000
S      -42.94300000     -30.70630000     -71.78870000
S      -42.74430000     -35.89330000     -71.45350000
C      -44.75770000     -31.13800000     -71.64930000
H      -44.79080000     -31.84770000     -70.82330000
H      -45.39990000     -30.27270000     -71.34410000
C      -44.43510000     -35.59410000     -72.04570000
H      -44.92500000     -36.53790000     -71.90760000
H      -44.37810000     -35.31310000     -73.11360000
C      -45.24190000     -34.52810000     -71.21670000
H      -45.25170000     -34.80100000     -70.17010000
H      -44.61520000     -33.62550000     -71.22930000
C      -45.23990000     -31.75890000     -72.94800000
H      -44.64570000     -32.64760000     -73.34230000
H      -45.07310000     -31.08000000     -73.80070000
C      -46.65970000     -32.22110000     -72.96210000
C      -47.53560000     -31.53000000     -73.76060000
C      -47.30420000     -33.41460000     -72.34260000
H      -47.47170000     -30.55290000     -74.21340000
C      -48.62200000     -33.58130000     -72.66160000
C      -46.69290000     -34.46400000     -71.60450000
C      -47.53940000     -35.48160000     -71.41100000
S      -49.17280000     -32.44560000     -73.82130000
S      -49.19780000     -35.16150000     -72.09700000
H      -47.49720000     -36.42870000     -70.91280000
