40
Properties=species:S:1:pos:R:3 #=T CELL(abcABC):=T 1.889726e+02=T 90.00000=T Traj:=T positionsangstrom=T Step:=T 0=T Bead:=T pbc="F F F"
C      -43.46990000     -34.19660000     -68.08640000
C      -42.85970000     -34.31400000     -69.34980000
C      -42.48050000     -33.13800000     -70.02300000
C      -42.75640000     -31.93260000     -69.37600000
C      -43.60630000     -31.80550000     -68.25760000
C      -43.75390000     -32.97630000     -67.50000000
H      -43.64400000     -35.12780000     -67.53890000
H      -41.82180000     -33.20970000     -70.86390000
H      -43.82070000     -30.83490000     -67.74830000
H      -44.12000000     -33.08410000     -66.49510000
C      -42.31720000     -30.64480000     -70.06390000
H      -41.26110000     -30.37920000     -70.16740000
H      -42.52890000     -29.73740000     -69.45610000
C      -42.48530000     -35.65880000     -69.81030000
H      -41.38330000     -35.70650000     -69.73230000
H      -42.89030000     -36.45920000     -69.18230000
S      -42.99790000     -30.61350000     -71.81690000
S      -42.82050000     -36.03500000     -71.60500000
C      -44.79200000     -31.20040000     -71.65320000
H      -44.87620000     -31.80770000     -70.77750000
H      -45.41640000     -30.31350000     -71.44260000
C      -44.64010000     -36.11870000     -71.71510000
H      -45.04530000     -37.03720000     -71.28050000
H      -44.72920000     -36.11930000     -72.83430000
C      -45.32040000     -34.91770000     -71.13800000
H      -45.40930000     -35.11140000     -69.99940000
H      -44.75930000     -34.00220000     -71.34080000
C      -45.21920000     -31.90830000     -72.92580000
H      -44.65030000     -32.82400000     -73.05190000
H      -44.97860000     -31.29420000     -73.76740000
C      -46.72230000     -32.23920000     -72.89490000
C      -47.70450000     -31.33830000     -73.24830000
C      -47.22120000     -33.51270000     -72.43450000
H      -47.55530000     -30.33190000     -73.56970000
C      -48.62040000     -33.61920000     -72.58950000
C      -46.70340000     -34.73810000     -71.72710000
C      -47.72850000     -35.69580000     -71.75620000
S      -49.36410000     -32.09150000     -73.26040000
S      -49.31600000     -35.15680000     -72.22800000
H      -47.54660000     -36.62070000     -71.20740000
