40
Properties=species:S:1:pos:R:3 #=T CELL(abcABC):=T 1.889726e+02=T 90.00000=T Traj:=T positionsangstrom=T Step:=T 0=T Bead:=T pbc="F F F"
C      -41.75730000     -32.04750000     -72.60350000
C      -41.76730000     -32.12290000     -71.22680000
C      -42.66160000     -31.37750000     -70.43630000
C      -43.58880000     -30.47670000     -71.04890000
C      -43.44980000     -30.36650000     -72.45860000
C      -42.56890000     -31.13020000     -73.22280000
H      -41.02100000     -32.61250000     -73.11990000
H      -42.54690000     -31.43440000     -69.32710000
H      -43.97990000     -29.51910000     -72.96260000
H      -42.41240000     -30.81690000     -74.23270000
C      -44.60380000     -29.62330000     -70.27640000
H      -44.23950000     -28.61920000     -70.43800000
H      -44.57310000     -29.89370000     -69.25740000
C      -41.00400000     -33.22680000     -70.53720000
H      -39.90070000     -33.31170000     -70.76330000
H      -41.16920000     -33.19580000     -69.43370000
S      -46.35820000     -29.71050000     -70.95310000
S      -41.69940000     -34.85620000     -71.13960000
C      -46.67570000     -31.47610000     -71.35040000
H      -47.69810000     -31.47850000     -71.75740000
H      -45.92250000     -31.90170000     -72.02080000
C      -43.51310000     -34.88580000     -70.88480000
H      -43.82530000     -34.43030000     -69.88100000
H      -43.53880000     -35.96800000     -70.64570000
C      -44.47580000     -34.60650000     -72.02750000
H      -44.57440000     -33.47890000     -72.12060000
H      -44.04970000     -35.05040000     -73.06960000
C      -46.63510000     -32.40980000     -70.18320000
H      -47.05880000     -31.81580000     -69.32270000
H      -45.57170000     -32.68710000     -69.91260000
C      -47.40160000     -33.66450000     -70.38850000
C      -48.67700000     -33.78910000     -69.93170000
C      -47.08100000     -34.79350000     -71.28120000
H      -49.31220000     -33.04310000     -69.47390000
C      -48.17670000     -35.68300000     -71.42940000
C      -45.90890000     -35.25060000     -71.97750000
C      -46.09340000     -36.46420000     -72.63240000
S      -49.57600000     -35.17860000     -70.55610000
S      -47.74220000     -37.03930000     -72.43490000
H      -45.27290000     -37.04400000     -73.06770000
