40
Properties=species:S:1:pos:R:3 #=T CELL(abcABC):=T 1.889726e+02=T 90.00000=T Traj:=T positionsangstrom=T Step:=T 0=T Bead:=T pbc="F F F"
C      -41.67620000     -31.99980000     -72.74340000
C      -41.84280000     -32.21050000     -71.38790000
C      -42.80150000     -31.52410000     -70.66290000
C      -43.68450000     -30.56530000     -71.19910000
C      -43.52270000     -30.38330000     -72.63120000
C      -42.57830000     -31.12290000     -73.32290000
H      -41.06430000     -32.75530000     -73.28950000
H      -42.87350000     -31.72860000     -69.63160000
H      -44.27910000     -29.81550000     -73.15310000
H      -42.63170000     -31.01550000     -74.35900000
C      -44.58990000     -29.79700000     -70.31220000
H      -44.29720000     -28.76330000     -70.10210000
H      -44.76910000     -30.22080000     -69.32160000
C      -41.10870000     -33.34440000     -70.61480000
H      -40.04950000     -33.36960000     -70.88210000
H      -41.14440000     -33.11040000     -69.51760000
S      -46.27780000     -29.61990000     -71.04150000
S      -41.71310000     -35.03740000     -71.10900000
C      -46.57570000     -31.47210000     -71.40430000
H      -47.58160000     -31.42090000     -71.87420000
H      -45.90930000     -31.79700000     -72.21810000
C      -43.64180000     -34.94550000     -70.74160000
H      -43.77570000     -34.19670000     -70.00710000
H      -43.93050000     -35.93380000     -70.40100000
C      -44.48350000     -34.47240000     -71.95680000
H      -44.43560000     -33.45720000     -71.91930000
H      -43.93090000     -34.66640000     -72.87760000
C      -46.54680000     -32.35750000     -70.21210000
H      -46.75220000     -31.82760000     -69.26710000
H      -45.57240000     -32.72550000     -70.03730000
C      -47.48290000     -33.53030000     -70.39020000
C      -48.75500000     -33.67400000     -69.91600000
C      -47.08510000     -34.68440000     -71.22650000
H      -49.34230000     -33.02250000     -69.22390000
C      -48.11890000     -35.63390000     -71.27080000
C      -45.89690000     -35.11140000     -71.91360000
C      -46.10190000     -36.25320000     -72.64680000
S      -49.50030000     -35.23600000     -70.31140000
S      -47.68130000     -37.00150000     -72.35710000
H      -45.39290000     -36.69540000     -73.32570000
