40
Properties=species:S:1:pos:R:3 #=T CELL(abcABC):=T 1.889726e+02=T 90.00000=T Traj:=T positionsangstrom=T Step:=T 0=T Bead:=T pbc="F F F"
C      -43.72380000     -34.20040000     -67.95780000
C      -42.87040000     -34.40810000     -69.10090000
C      -42.28020000     -33.26950000     -69.73760000
C      -42.64630000     -31.92880000     -69.34340000
C      -43.38100000     -31.80310000     -68.13720000
C      -43.88520000     -32.90830000     -67.45210000
H      -44.19180000     -35.01130000     -67.46170000
H      -41.73430000     -33.47080000     -70.66470000
H      -43.62070000     -30.74490000     -67.86910000
H      -44.59290000     -32.78800000     -66.59930000
C      -42.32000000     -30.71180000     -70.15190000
H      -41.32510000     -30.67020000     -70.48890000
H      -42.75110000     -29.84370000     -69.60030000
C      -42.54340000     -35.78120000     -69.63300000
H      -41.51720000     -36.05700000     -69.41620000
H      -43.21020000     -36.46980000     -69.08630000
S      -43.06210000     -30.69180000     -71.88980000
S      -42.67050000     -35.94120000     -71.45000000
C      -44.75810000     -31.30080000     -71.58810000
H      -44.74500000     -32.12520000     -70.85220000
H      -45.37270000     -30.51290000     -71.17850000
C      -44.43450000     -35.86740000     -71.92100000
H      -45.00900000     -36.78550000     -71.89780000
H      -44.30330000     -35.72940000     -72.99480000
C      -45.32720000     -34.83840000     -71.22900000
H      -45.35620000     -35.08440000     -70.24030000
H      -44.88530000     -33.81090000     -71.36050000
C      -45.25820000     -31.83330000     -72.91320000
H      -44.59500000     -32.72510000     -73.15610000
H      -45.20180000     -31.01970000     -73.66510000
C      -46.70180000     -32.32880000     -72.96090000
C      -47.62100000     -31.45290000     -73.49420000
C      -47.31810000     -33.52660000     -72.45080000
H      -47.43450000     -30.52800000     -74.05860000
C      -48.72680000     -33.57140000     -72.60020000
C      -46.81890000     -34.72100000     -71.75700000
C      -47.81730000     -35.68550000     -71.58200000
S      -49.29240000     -32.12660000     -73.53020000
S      -49.42570000     -35.07000000     -72.20670000
H      -47.74510000     -36.58770000     -70.99500000
