40
Properties=species:S:1:pos:R:3 #=T CELL(abcABC):=T 1.889726e+02=T 90.00000=T Traj:=T positionsangstrom=T Step:=T 0=T Bead:=T pbc="F F F"
C      -48.76390000     -31.39870000     -71.70840000
C      -47.88280000     -32.26490000     -71.06770000
C      -47.09940000     -33.23050000     -71.80510000
C      -47.12540000     -33.24600000     -73.15160000
C      -48.05010000     -32.39310000     -73.78770000
C      -48.92150000     -31.54250000     -73.14090000
H      -49.21160000     -30.58900000     -71.14040000
H      -46.35860000     -33.83690000     -71.27200000
H      -47.88900000     -32.29660000     -74.82620000
H      -49.48480000     -30.87650000     -73.75490000
C      -46.18290000     -34.24580000     -73.90290000
H      -46.86950000     -34.64330000     -74.66460000
H      -45.70710000     -34.99070000     -73.27700000
C      -47.73290000     -32.29170000     -69.53330000
H      -48.61830000     -32.05310000     -68.95360000
H      -47.39820000     -33.31020000     -69.18080000
S      -44.77420000     -33.41070000     -74.86970000
S      -46.52950000     -31.07670000     -68.91820000
C      -44.20360000     -32.22500000     -73.65820000
H      -43.83530000     -31.49090000     -74.30590000
H      -44.94220000     -31.89310000     -72.94360000
C      -45.03290000     -30.92450000     -70.00710000
H      -44.77120000     -29.90180000     -70.18240000
H      -45.17800000     -31.28420000     -71.03770000
C      -43.84090000     -31.57500000     -69.40260000
H      -42.89610000     -31.16530000     -69.76070000
H      -43.80180000     -31.39290000     -68.37960000
C      -43.01020000     -32.82730000     -72.81390000
H      -42.57520000     -32.07030000     -72.22560000
H      -42.19570000     -33.07750000     -73.47740000
C      -43.37570000     -33.97800000     -71.98380000
C      -43.10070000     -35.23270000     -72.48020000
C      -43.72390000     -34.10650000     -70.53020000
H      -42.94210000     -35.55410000     -73.50790000
C      -43.96300000     -35.42520000     -70.14870000
C      -43.98440000     -33.15320000     -69.45540000
C      -44.33700000     -33.84320000     -68.30160000
S      -43.60750000     -36.56540000     -71.38530000
S      -44.40300000     -35.61560000     -68.49990000
H      -44.53210000     -33.50130000     -67.25320000
