40
Properties=species:S:1:pos:R:3 #=T CELL(abcABC):=T 1.889726e+02=T 90.00000=T Traj:=T positionsangstrom=T Step:=T 0=T Bead:=T pbc="F F F"
C      -43.64540000     -32.34650000     -73.27960000
C      -44.76290000     -32.61430000     -74.06170000
C      -45.96590000     -31.82950000     -73.82700000
C      -46.00790000     -30.87970000     -72.80410000
C      -44.79770000     -30.55660000     -72.17760000
C      -43.66760000     -31.34540000     -72.31530000
H      -42.85450000     -33.00910000     -73.27080000
H      -46.86940000     -32.14440000     -74.34620000
H      -44.86560000     -29.65880000     -71.51840000
H      -42.68630000     -31.13020000     -71.79280000
C      -47.25920000     -30.12380000     -72.56370000
H      -47.84840000     -30.25510000     -73.42030000
H      -47.14420000     -29.06140000     -72.42220000
C      -44.91030000     -33.78550000     -74.91870000
H      -45.76610000     -33.60790000     -75.53690000
H      -44.05060000     -33.96250000     -75.57200000
S      -48.33450000     -30.89700000     -71.27910000
S      -45.21350000     -35.29560000     -74.00240000
C      -47.25120000     -31.47710000     -69.93670000
H      -46.24850000     -31.08350000     -70.19740000
H      -47.51320000     -30.90750000     -68.97660000
C      -46.62940000     -34.94370000     -72.86020000
H      -47.55910000     -35.08740000     -73.42400000
H      -46.65350000     -33.87900000     -72.49210000
C      -46.41640000     -35.85310000     -71.62350000
H      -47.33510000     -35.84270000     -70.96510000
H      -46.23160000     -36.86430000     -71.97670000
C      -47.21540000     -33.03460000     -69.86240000
H      -47.30240000     -33.41810000     -70.87960000
H      -48.02770000     -33.45580000     -69.24260000
C      -45.88260000     -33.44080000     -69.24740000
C      -45.29660000     -32.88880000     -68.13880000
C      -44.99350000     -34.45490000     -69.87500000
H      -45.83600000     -32.13320000     -67.55540000
C      -43.77600000     -34.61370000     -69.26720000
C      -45.14080000     -35.48000000     -70.83180000
C      -44.06520000     -36.38770000     -70.89590000
S      -43.68760000     -33.50720000     -67.78640000
S      -42.76930000     -35.88610000     -69.84310000
H      -43.98030000     -37.22680000     -71.64840000
