40
Properties=species:S:1:pos:R:3 #=T CELL(abcABC):=T 1.889726e+02=T 90.00000=T Traj:=T positionsangstrom=T Step:=T 0=T Bead:=T pbc="F F F"
C      -43.89460000     -32.01500000     -73.59990000
C      -45.13580000     -32.54570000     -73.99310000
C      -46.24100000     -31.82940000     -73.60130000
C      -46.17320000     -30.68830000     -72.79650000
C      -44.91090000     -30.16540000     -72.45950000
C      -43.75340000     -30.85900000     -72.88380000
H      -43.01650000     -32.67120000     -73.85030000
H      -47.16610000     -32.12090000     -74.01730000
H      -44.87140000     -29.28420000     -71.76030000
H      -42.71590000     -30.52540000     -72.71330000
C      -47.46060000     -30.05450000     -72.30670000
H      -47.97980000     -29.74370000     -73.22960000
H      -47.19790000     -29.03490000     -71.76720000
C      -45.18950000     -33.73510000     -74.87640000
H      -46.13530000     -33.78760000     -75.36790000
H      -44.42930000     -33.82820000     -75.63300000
S      -48.59430000     -31.08170000     -71.30250000
S      -44.77920000     -35.21060000     -73.72150000
C      -47.50240000     -31.63670000     -69.88000000
H      -46.69260000     -30.96210000     -69.72380000
H      -48.09130000     -31.63670000     -68.94530000
C      -46.45040000     -35.52810000     -72.90070000
H      -47.14380000     -36.28010000     -73.46380000
H      -46.89810000     -34.50640000     -72.86900000
C      -46.29790000     -36.27640000     -71.48370000
H      -47.26750000     -36.25150000     -70.97070000
H      -46.07110000     -37.32610000     -71.76250000
C      -46.89810000     -33.02960000     -70.28850000
H      -46.68880000     -32.84250000     -71.29980000
H      -47.68550000     -33.80630000     -70.20510000
C      -45.66800000     -33.42710000     -69.56270000
C      -45.01800000     -32.56190000     -68.76610000
C      -44.92580000     -34.63430000     -69.80780000
H      -45.34830000     -31.56860000     -68.44610000
C      -43.75730000     -34.61560000     -69.02260000
C      -45.09770000     -35.84600000     -70.63860000
C      -44.05530000     -36.71890000     -70.41670000
S      -43.48960000     -33.11520000     -68.21110000
S      -42.84950000     -36.10110000     -69.32480000
H      -43.79230000     -37.68140000     -70.87570000
