40
Properties=species:S:1:pos:R:3 #=T CELL(abcABC):=T 1.889726e+02=T 90.00000=T Traj:=T positionsangstrom=T Step:=T 0=T Bead:=T pbc="F F F"
C      -48.48150000     -33.38540000     -69.39800000
C      -48.37940000     -34.29270000     -70.40940000
C      -47.56800000     -35.42130000     -70.20980000
C      -46.67010000     -35.51860000     -69.10230000
C      -46.77240000     -34.53920000     -68.08530000
C      -47.70440000     -33.53610000     -68.25420000
H      -49.21480000     -32.55360000     -69.36630000
H      -47.50880000     -36.02990000     -71.10420000
H      -46.24320000     -34.61350000     -67.13700000
H      -47.87290000     -32.80430000     -67.48560000
C      -45.73720000     -36.75840000     -68.90920000
H      -46.28840000     -37.74730000     -68.86980000
H      -45.20970000     -36.63000000     -67.89440000
C      -49.33160000     -34.22370000     -71.52030000
H      -49.68770000     -35.22810000     -71.64460000
H      -50.14970000     -33.46240000     -71.39830000
S      -44.64300000     -37.11720000     -70.42140000
S      -48.50310000     -33.77410000     -73.10030000
C      -43.46710000     -35.64200000     -70.50180000
H      -43.11070000     -35.27690000     -69.57460000
H      -42.63410000     -35.96100000     -71.09150000
C      -47.28880000     -32.54570000     -72.56770000
H      -46.98770000     -32.79660000     -71.51710000
H      -47.72720000     -31.54020000     -72.50270000
C      -46.08960000     -32.54270000     -73.49150000
H      -45.75960000     -33.65600000     -73.60020000
H      -46.33480000     -32.17440000     -74.51170000
C      -44.10320000     -34.45540000     -71.25270000
H      -44.96260000     -34.09490000     -70.76060000
H      -44.48250000     -34.78950000     -72.11860000
C      -43.16910000     -33.26930000     -71.57050000
C      -41.99010000     -33.03360000     -70.89310000
C      -43.71730000     -32.14020000     -72.29780000
H      -41.39040000     -33.81660000     -70.37330000
C      -42.81320000     -31.03910000     -72.21040000
C      -44.90800000     -31.68780000     -73.00100000
C      -44.84870000     -30.37130000     -73.42380000
S      -41.40310000     -31.35440000     -71.26490000
S      -43.37580000     -29.57270000     -73.02360000
H      -45.55790000     -29.94510000     -74.12660000
