40
Properties=species:S:1:pos:R:3 #=T CELL(abcABC):=T 1.889726e+02=T 90.00000=T Traj:=T positionsangstrom=T Step:=T 0=T Bead:=T pbc="F F F"
C      -43.18750000     -32.69570000     -73.19560000
C      -44.55030000     -32.81250000     -73.51840000
C      -45.52390000     -32.15640000     -72.78360000
C      -45.15980000     -31.28680000     -71.78610000
C      -43.77030000     -31.10900000     -71.48160000
C      -42.82300000     -31.83600000     -72.15420000
H      -42.44390000     -33.23590000     -73.75280000
H      -46.56470000     -32.37440000     -73.00300000
H      -43.48410000     -30.39600000     -70.65440000
H      -41.75110000     -31.53800000     -72.10790000
C      -46.16930000     -30.37110000     -71.11750000
H      -46.09170000     -29.36110000     -71.60710000
H      -46.06230000     -30.24380000     -70.06760000
C      -45.07560000     -33.66780000     -74.66950000
H      -46.01940000     -33.12170000     -75.00700000
H      -44.34170000     -33.73390000     -75.47330000
S      -47.90790000     -30.95300000     -71.39750000
S      -45.34900000     -35.42620000     -74.35150000
C      -48.36170000     -32.00400000     -69.94680000
H      -48.11140000     -31.62840000     -68.91360000
H      -49.42650000     -31.95920000     -69.96910000
C      -46.77510000     -35.50120000     -73.14620000
H      -47.49890000     -36.11130000     -73.62840000
H      -47.18270000     -34.50820000     -73.14560000
C      -46.52540000     -36.07180000     -71.75080000
H      -47.41010000     -35.98520000     -71.12930000
H      -46.30480000     -37.13300000     -71.80070000
C      -47.81140000     -33.42530000     -69.99460000
H      -47.90020000     -33.72020000     -71.07100000
H      -48.55300000     -33.98920000     -69.40390000
C      -46.38070000     -33.44460000     -69.55560000
C      -45.83500000     -32.59580000     -68.66510000
C      -45.40240000     -34.34860000     -70.08260000
H      -46.23710000     -31.79470000     -68.03930000
C      -44.14530000     -34.13740000     -69.48340000
C      -45.34050000     -35.48560000     -71.00540000
C      -44.06720000     -36.02480000     -71.12230000
S      -44.11970000     -32.88490000     -68.25760000
S      -42.90910000     -35.07680000     -70.18350000
H      -43.74810000     -36.71890000     -71.84600000
