40
Properties=species:S:1:pos:R:3 #=T CELL(abcABC):=T 1.889726e+02=T 90.00000=T Traj:=T positionsangstrom=T Step:=T 0=T Bead:=T pbc="F F F"
C      -43.55160000     -32.58360000     -73.25550000
C      -44.82180000     -32.68280000     -73.80670000
C      -45.85300000     -31.80410000     -73.38440000
C      -45.67970000     -30.80580000     -72.40990000
C      -44.42700000     -30.78860000     -71.76400000
C      -43.42750000     -31.65800000     -72.19020000
H      -42.75350000     -33.32460000     -73.44830000
H      -46.86440000     -31.98300000     -73.78030000
H      -44.16940000     -30.04820000     -71.04960000
H      -42.49610000     -31.51890000     -71.65430000
C      -46.73600000     -29.91190000     -71.90570000
H      -47.06520000     -29.21880000     -72.71240000
H      -46.37090000     -29.32710000     -71.10200000
C      -44.98080000     -33.73300000     -74.92070000
H      -45.87150000     -33.45730000     -75.57380000
H      -44.09350000     -33.78490000     -75.54560000
S      -48.34950000     -30.87000000     -71.43420000
S      -45.34260000     -35.42710000     -74.29160000
C      -47.64650000     -31.55510000     -69.77930000
H      -46.85520000     -30.93310000     -69.42960000
H      -48.38760000     -31.43070000     -69.00400000
C      -46.73580000     -35.15750000     -73.07870000
H      -47.61830000     -35.64050000     -73.49110000
H      -46.82940000     -34.04050000     -72.91360000
C      -46.38770000     -35.83910000     -71.73560000
H      -47.21860000     -35.72960000     -71.06680000
H      -46.27830000     -36.88010000     -71.95270000
C      -47.38050000     -33.07370000     -69.81120000
H      -47.51600000     -33.42320000     -70.85370000
H      -48.19260000     -33.48940000     -69.12950000
C      -45.92490000     -33.36150000     -69.37770000
C      -45.34670000     -32.80130000     -68.29760000
C      -45.10190000     -34.38630000     -69.92660000
H      -45.72990000     -32.05080000     -67.63410000
C      -43.86460000     -34.44410000     -69.34300000
C      -45.17440000     -35.42360000     -70.97420000
C      -44.10940000     -36.31050000     -70.97860000
S      -43.69800000     -33.35060000     -67.98340000
S      -42.83020000     -35.82060000     -69.88130000
H      -43.97940000     -37.02940000     -71.71170000
