40
Properties=species:S:1:pos:R:3 #=T CELL(abcABC):=T 1.889726e+02=T 90.00000=T Traj:=T positionsangstrom=T Step:=T 0=T Bead:=T pbc="F F F"
C      -43.55070000     -32.75590000     -73.05900000
C      -44.77770000     -32.69710000     -73.74230000
C      -45.69500000     -31.74690000     -73.28210000
C      -45.53460000     -31.02700000     -72.08340000
C      -44.39000000     -31.21720000     -71.31340000
C      -43.34710000     -31.99030000     -71.91760000
H      -42.68630000     -33.25830000     -73.51110000
H      -46.65420000     -31.61990000     -73.80450000
H      -44.27330000     -30.63060000     -70.39770000
H      -42.36740000     -32.17650000     -71.38550000
C      -46.56560000     -29.98470000     -71.49040000
H      -46.60950000     -29.06680000     -72.00830000
H      -46.22540000     -29.60150000     -70.48140000
C      -45.08610000     -33.57010000     -74.87440000
H      -45.90370000     -33.27300000     -75.50090000
H      -44.16550000     -33.75020000     -75.53340000
S      -48.29650000     -30.75710000     -71.38040000
S      -45.34340000     -35.33100000     -74.20210000
C      -48.05670000     -31.82360000     -69.97380000
H      -47.42480000     -31.31230000     -69.24110000
H      -49.03020000     -31.95360000     -69.48680000
C      -46.73420000     -35.31290000     -73.04780000
H      -47.57630000     -35.95410000     -73.46130000
H      -47.05320000     -34.32890000     -72.83580000
C      -46.35820000     -36.05520000     -71.72910000
H      -47.19410000     -35.94460000     -71.07110000
H      -46.25900000     -37.10000000     -71.97190000
C      -47.31840000     -33.15430000     -70.28460000
H      -47.18800000     -33.21170000     -71.33080000
H      -47.92970000     -34.00270000     -70.02150000
C      -46.01660000     -33.45220000     -69.63090000
C      -45.55910000     -32.63160000     -68.66050000
C      -45.11520000     -34.45030000     -70.11570000
H      -46.07550000     -31.80370000     -68.17800000
C      -43.90710000     -34.28330000     -69.44380000
C      -45.15430000     -35.58690000     -71.00470000
C      -43.92910000     -36.24540000     -71.00890000
S      -43.82100000     -33.03980000     -68.23300000
S      -42.77960000     -35.62760000     -69.89030000
H      -43.67450000     -37.16660000     -71.47180000
