40
Properties=species:S:1:pos:R:3 #=T CELL(abcABC):=T 1.889726e+02=T 90.00000=T Traj:=T positionsangstrom=T Step:=T 0=T Bead:=T pbc="F F F"
C      -43.54630000     -32.74710000     -73.12360000
C      -44.78230000     -32.70320000     -73.75720000
C      -45.76610000     -31.79500000     -73.28930000
C      -45.54670000     -30.90780000     -72.26120000
C      -44.28080000     -30.88150000     -71.64600000
C      -43.31310000     -31.85810000     -72.05890000
H      -42.73600000     -33.38100000     -73.46610000
H      -46.75260000     -31.72840000     -73.73230000
H      -44.06910000     -30.29430000     -70.78960000
H      -42.27810000     -31.87170000     -71.55720000
C      -46.74570000     -29.96150000     -71.81420000
H      -47.03910000     -29.24960000     -72.62390000
H      -46.39550000     -29.48920000     -70.85030000
C      -45.13070000     -33.64490000     -74.94250000
H      -46.05730000     -33.38370000     -75.39070000
H      -44.32940000     -33.61430000     -75.70440000
S      -48.29240000     -30.81060000     -71.39290000
S      -45.35750000     -35.35850000     -74.30520000
C      -48.11840000     -31.84750000     -69.87860000
H      -47.68230000     -31.18840000     -69.06410000
H      -49.16910000     -32.06740000     -69.62550000
C      -46.66780000     -35.02830000     -73.01620000
H      -47.61750000     -35.27440000     -73.40740000
H      -46.72430000     -33.92260000     -72.97150000
C      -46.38360000     -35.84940000     -71.70320000
H      -47.27240000     -35.91550000     -70.99440000
H      -46.31820000     -36.89960000     -72.04110000
C      -47.34350000     -33.16190000     -70.14010000
H      -47.26420000     -33.22540000     -71.20560000
H      -47.96300000     -34.07500000     -69.92130000
C      -45.94780000     -33.32670000     -69.50390000
C      -45.29970000     -32.59020000     -68.56910000
C      -45.12800000     -34.52220000     -69.84510000
H      -45.56350000     -31.70080000     -68.01020000
C      -43.92250000     -34.52540000     -69.19760000
C      -45.16460000     -35.57210000     -70.94170000
C      -43.98900000     -36.27560000     -71.03950000
S      -43.77200000     -33.26250000     -68.05720000
S      -42.80400000     -35.67810000     -69.88170000
H      -43.75710000     -36.97770000     -71.74430000
