40
Properties=species:S:1:pos:R:3 #=T CELL(abcABC):=T 1.889726e+02=T 90.00000=T Traj:=T positionsangstrom=T Step:=T 0=T Bead:=T pbc="F F F"
C      -48.37740000     -33.09140000     -69.26520000
C      -48.41100000     -34.11510000     -70.23640000
C      -47.54120000     -35.20960000     -70.11060000
C      -46.66650000     -35.43740000     -69.03580000
C      -46.71040000     -34.44280000     -68.09240000
C      -47.53340000     -33.29530000     -68.18360000
H      -49.10200000     -32.26980000     -69.26670000
H      -47.50560000     -36.02290000     -70.89940000
H      -46.01840000     -34.47310000     -67.22050000
H      -47.57760000     -32.62160000     -67.28400000
C      -45.74920000     -36.70560000     -68.93800000
H      -46.33580000     -37.58290000     -68.45560000
H      -44.97300000     -36.51390000     -68.11810000
C      -49.36100000     -34.07340000     -71.44300000
H      -49.94580000     -35.04300000     -71.48760000
H      -50.17740000     -33.39210000     -71.44380000
S      -44.92180000     -37.10330000     -70.50780000
S      -48.29810000     -34.01520000     -73.08620000
C      -43.67190000     -35.77700000     -70.66470000
H      -43.39740000     -35.55700000     -69.71220000
H      -42.82490000     -36.19990000     -71.10760000
C      -47.11870000     -32.65880000     -72.62090000
H      -46.74960000     -32.95660000     -71.63140000
H      -47.69120000     -31.71930000     -72.55610000
C      -46.00590000     -32.50380000     -73.66890000
H      -45.64160000     -33.50490000     -74.01630000
H      -46.35360000     -31.94870000     -74.60460000
C      -44.22070000     -34.60200000     -71.48160000
H      -45.15500000     -34.27480000     -71.06750000
H      -44.37010000     -34.99830000     -72.59290000
C      -43.40860000     -33.26450000     -71.50750000
C      -42.25500000     -33.06860000     -70.80620000
C      -43.80000000     -32.04420000     -72.25480000
H      -41.76410000     -33.72510000     -70.09510000
C      -42.81720000     -31.07650000     -72.16520000
C      -44.83180000     -31.66720000     -73.17920000
C      -44.58640000     -30.42380000     -73.71870000
S      -41.55460000     -31.41500000     -70.96660000
S      -43.15190000     -29.65840000     -73.12270000
H      -45.18480000     -29.70410000     -74.29070000
