40
Properties=species:S:1:pos:R:3 #=T CELL(abcABC):=T 1.889726e+02=T 90.00000=T Traj:=T positionsangstrom=T Step:=T 0=T Bead:=T pbc="F F F"
C      -42.53630000     -34.29160000     -68.77810000
C      -42.10240000     -34.22610000     -70.12470000
C      -42.00020000     -33.02770000     -70.85910000
C      -42.46870000     -31.86110000     -70.27180000
C      -42.92900000     -31.89180000     -68.96410000
C      -43.06890000     -33.10190000     -68.27050000
H      -42.56140000     -35.21720000     -68.15900000
H      -41.76950000     -33.04340000     -71.89940000
H      -43.33640000     -30.99310000     -68.52000000
H      -43.12930000     -33.05110000     -67.18930000
C      -42.50570000     -30.55630000     -71.05500000
H      -41.53860000     -30.38180000     -71.43970000
H      -42.85130000     -29.69590000     -70.40750000
C      -41.69940000     -35.44400000     -70.90670000
H      -40.71990000     -35.19440000     -71.51060000
H      -41.50220000     -36.26080000     -70.21080000
S      -43.49330000     -30.57950000     -72.66390000
S      -42.81450000     -36.23890000     -72.12340000
C      -45.25150000     -31.06950000     -71.91960000
H      -45.07840000     -31.85250000     -71.18260000
H      -45.70390000     -30.20370000     -71.44660000
C      -44.41350000     -35.91000000     -71.32810000
H      -44.16450000     -35.90410000     -70.25220000
H      -45.07090000     -36.80580000     -71.44290000
C      -45.13130000     -34.63860000     -71.93020000
H      -44.61590000     -33.65870000     -71.75060000
H      -45.23870000     -34.85120000     -73.02430000
C      -46.13530000     -31.64680000     -73.10800000
H      -45.63970000     -32.28800000     -73.78590000
H      -46.41130000     -30.81840000     -73.76680000
C      -47.40640000     -32.27380000     -72.62300000
C      -48.59110000     -31.57860000     -72.66320000
C      -47.55400000     -33.54370000     -71.96900000
H      -48.71980000     -30.57190000     -73.10490000
C      -48.87360000     -33.80560000     -71.51590000
C      -46.61690000     -34.56970000     -71.47820000
C      -47.25670000     -35.42580000     -70.56040000
S      -49.92540000     -32.38190000     -71.80400000
S      -49.01190000     -35.19480000     -70.62550000
H      -46.79910000     -36.36960000     -70.24200000
