40
Properties=species:S:1:pos:R:3 #=T CELL(abcABC):=T 1.889726e+02=T 90.00000=T Traj:=T positionsangstrom=T Step:=T 0=T Bead:=T pbc="F F F"
C      -42.38770000     -34.25820000     -68.83680000
C      -42.05710000     -34.28240000     -70.19430000
C      -42.01650000     -33.14190000     -71.03180000
C      -42.40430000     -31.93860000     -70.41630000
C      -42.77400000     -31.93580000     -69.06330000
C      -42.80510000     -33.05380000     -68.22770000
H      -42.50810000     -35.15730000     -68.24530000
H      -41.78680000     -33.25930000     -72.04300000
H      -43.16980000     -30.99340000     -68.66990000
H      -43.46250000     -33.18350000     -67.37700000
C      -42.46000000     -30.62890000     -71.23240000
H      -41.48050000     -30.50140000     -71.66670000
H      -42.61490000     -29.76880000     -70.59030000
C      -41.59140000     -35.57060000     -70.70180000
H      -40.58670000     -35.48730000     -71.05690000
H      -41.60490000     -36.28010000     -69.87690000
S      -43.67270000     -30.67220000     -72.62020000
S      -42.73830000     -36.07940000     -72.10120000
C      -45.28080000     -31.11320000     -71.94100000
H      -45.09820000     -31.80720000     -71.12400000
H      -45.78630000     -30.27680000     -71.40860000
C      -44.49110000     -35.92170000     -71.44940000
H      -44.40830000     -35.95220000     -70.37060000
H      -45.18210000     -36.68960000     -71.83480000
C      -45.12970000     -34.55170000     -71.80120000
H      -44.68640000     -33.67780000     -71.40800000
H      -44.98870000     -34.31070000     -72.84300000
C      -46.24010000     -31.64980000     -73.04990000
H      -45.73340000     -32.49170000     -73.60540000
H      -46.49310000     -30.80200000     -73.68030000
C      -47.47170000     -32.21640000     -72.49010000
C      -48.69120000     -31.58780000     -72.64640000
C      -47.50750000     -33.38510000     -71.74190000
H      -48.85880000     -30.67220000     -73.21900000
C      -48.79460000     -33.58200000     -71.17510000
C      -46.62130000     -34.53870000     -71.52050000
C      -47.36380000     -35.59660000     -70.98890000
S      -49.99160000     -32.44960000     -71.89960000
S      -48.99250000     -35.13760000     -70.51850000
H      -47.02560000     -36.56540000     -70.59430000
