40
Properties=species:S:1:pos:R:3 #=T CELL(abcABC):=T 1.889726e+02=T 90.00000=T Traj:=T positionsangstrom=T Step:=T 0=T Bead:=T pbc="F F F"
C      -43.38300000     -33.06780000     -72.84590000
C      -44.63540000     -33.04060000     -73.44110000
C      -45.56020000     -32.08880000     -73.11210000
C      -45.31750000     -31.22820000     -72.02420000
C      -44.06700000     -31.27380000     -71.37690000
C      -43.04440000     -32.12610000     -71.82900000
H      -42.61040000     -33.71530000     -73.24180000
H      -46.49900000     -32.02250000     -73.59730000
H      -43.86810000     -30.57280000     -70.55300000
H      -42.02440000     -32.05650000     -71.43000000
C      -46.36820000     -30.17900000     -71.68770000
H      -46.46580000     -29.43700000     -72.48280000
H      -46.10940000     -29.66960000     -70.75460000
C      -44.90030000     -33.96980000     -74.63540000
H      -45.91530000     -33.84900000     -75.10910000
H      -44.11730000     -33.89750000     -75.44630000
S      -48.15130000     -30.79340000     -71.66840000
S      -44.94870000     -35.76650000     -74.04830000
C      -48.43330000     -31.87930000     -70.16010000
H      -48.11820000     -31.35160000     -69.24870000
H      -49.55080000     -31.99010000     -70.08020000
C      -46.59670000     -35.83700000     -73.06940000
H      -47.14900000     -36.65500000     -73.56250000
H      -47.08930000     -34.86710000     -73.23180000
C      -46.28610000     -36.17390000     -71.58650000
H      -47.21300000     -35.97180000     -71.11540000
H      -46.05100000     -37.20980000     -71.45090000
C      -47.84470000     -33.28650000     -70.14490000
H      -47.83120000     -33.67230000     -71.17090000
H      -48.51930000     -33.91580000     -69.53840000
C      -46.31510000     -33.31720000     -69.73120000
C      -45.92010000     -32.35620000     -68.85450000
C      -45.32000000     -34.32510000     -69.97310000
H      -46.51100000     -31.61050000     -68.33300000
C      -44.13780000     -34.01510000     -69.30080000
C      -45.16950000     -35.41550000     -70.88570000
C      -43.91830000     -35.90120000     -71.00160000
S      -44.22810000     -32.57620000     -68.34170000
S      -42.83480000     -34.96490000     -70.00940000
H      -43.66990000     -36.69130000     -71.77210000
