40
Properties=species:S:1:pos:R:3 #=T CELL(abcABC):=T 1.889726e+02=T 90.00000=T Traj:=T positionsangstrom=T Step:=T 0=T Bead:=T pbc="F F F"
C      -42.89010000     -34.06310000     -69.14230000
C      -42.26600000     -33.95000000     -70.39720000
C      -42.21550000     -32.67950000     -71.03580000
C      -42.77630000     -31.54090000     -70.42960000
C      -43.52390000     -31.67450000     -69.25310000
C      -43.50710000     -32.92070000     -68.63310000
H      -42.89520000     -34.93170000     -68.53270000
H      -41.82330000     -32.58320000     -72.00090000
H      -43.90780000     -30.71490000     -68.86290000
H      -43.87070000     -32.99340000     -67.57400000
C      -42.70530000     -30.21810000     -71.19030000
H      -41.64020000     -30.01940000     -71.49490000
H      -43.09710000     -29.35020000     -70.57760000
C      -41.71900000     -35.19780000     -71.00600000
H      -40.82940000     -34.87600000     -71.55580000
H      -41.40970000     -35.89230000     -70.15770000
S      -43.68040000     -30.34830000     -72.73930000
S      -42.66260000     -36.11920000     -72.28510000
C      -45.26420000     -31.10620000     -72.12050000
H      -44.96410000     -31.86270000     -71.40060000
H      -45.81930000     -30.41950000     -71.55240000
C      -44.34000000     -36.20710000     -71.59660000
H      -44.26110000     -36.38540000     -70.53460000
H      -44.75650000     -37.13420000     -71.93400000
C      -45.08140000     -34.94460000     -71.95290000
H      -44.44710000     -34.13420000     -71.55400000
H      -44.99790000     -34.77930000     -73.07930000
C      -46.13500000     -31.78510000     -73.18680000
H      -45.54350000     -32.48400000     -73.81990000
H      -46.48700000     -31.05700000     -73.91100000
C      -47.27230000     -32.43570000     -72.44040000
C      -48.51800000     -31.76790000     -72.38120000
C      -47.30220000     -33.71140000     -71.71400000
H      -48.83310000     -30.90250000     -72.95630000
C      -48.56390000     -33.89160000     -71.06200000
C      -46.50740000     -34.85970000     -71.51660000
C      -47.08110000     -35.85330000     -70.77150000
S      -49.67140000     -32.55280000     -71.35380000
S      -48.75790000     -35.38710000     -70.18760000
H      -46.87120000     -36.91200000     -70.61910000
