40
Properties=species:S:1:pos:R:3 #=T CELL(abcABC):=T 1.889726e+02=T 90.00000=T Traj:=T positionsangstrom=T Step:=T 0=T Bead:=T pbc="F F F"
C      -43.01570000     -34.07610000     -69.16860000
C      -42.32200000     -34.03970000     -70.41270000
C      -42.06900000     -32.83360000     -71.10250000
C      -42.61150000     -31.63250000     -70.57690000
C      -43.31180000     -31.65830000     -69.32980000
C      -43.48840000     -32.87930000     -68.63680000
H      -43.31130000     -34.99120000     -68.75540000
H      -41.50920000     -32.85380000     -72.00460000
H      -43.81570000     -30.76130000     -68.99190000
H      -44.05350000     -32.95890000     -67.67830000
C      -42.56220000     -30.30410000     -71.33690000
H      -41.61140000     -30.13260000     -71.77030000
H      -42.75530000     -29.47080000     -70.71130000
C      -41.63210000     -35.24560000     -71.04300000
H      -40.69230000     -35.01020000     -71.48020000
H      -41.63870000     -36.05130000     -70.28040000
S      -43.70730000     -30.31490000     -72.80780000
S      -42.64030000     -35.97470000     -72.41770000
C      -45.28970000     -30.98780000     -72.09790000
H      -45.12390000     -31.40670000     -71.13010000
H      -46.08590000     -30.17940000     -72.04230000
C      -44.30130000     -36.07470000     -71.51260000
H      -44.13220000     -36.17660000     -70.44910000
H      -44.78010000     -37.02060000     -71.95910000
C      -45.13740000     -34.86180000     -71.81800000
H      -44.68560000     -33.90330000     -71.46180000
H      -45.23640000     -34.84820000     -72.87020000
C      -45.99050000     -32.07350000     -72.97920000
H      -45.34740000     -32.90470000     -73.33170000
H      -46.30340000     -31.62430000     -73.94450000
C      -47.25210000     -32.52710000     -72.31800000
C      -48.42640000     -31.72710000     -72.28830000
C      -47.40920000     -33.71500000     -71.54240000
H      -48.52430000     -30.78500000     -72.80340000
C      -48.74730000     -33.92800000     -71.06610000
C      -46.55510000     -34.85570000     -71.27370000
C      -47.12040000     -35.78500000     -70.54320000
S      -49.72760000     -32.54560000     -71.42510000
S      -48.85600000     -35.41050000     -70.21790000
H      -46.87560000     -36.75990000     -70.16100000
