40
Properties=species:S:1:pos:R:3 #=T CELL(abcABC):=T 1.889726e+02=T 90.00000=T Traj:=T positionsangstrom=T Step:=T 0=T Bead:=T pbc="F F F"
C      -42.94210000     -34.06650000     -69.06120000
C      -42.24200000     -33.99190000     -70.30160000
C      -42.24880000     -32.74150000     -70.99750000
C      -42.90470000     -31.57200000     -70.46400000
C      -43.34410000     -31.63260000     -69.14700000
C      -43.51970000     -32.87740000     -68.51950000
H      -42.93300000     -35.03450000     -68.45420000
H      -41.71490000     -32.47990000     -71.95720000
H      -43.79570000     -30.74550000     -68.70400000
H      -44.15870000     -32.99830000     -67.66700000
C      -42.87400000     -30.29620000     -71.27330000
H      -41.88370000     -30.07580000     -71.57370000
H      -43.24010000     -29.40830000     -70.79980000
C      -41.47660000     -35.16770000     -70.73040000
H      -40.45980000     -34.92530000     -71.17690000
H      -41.14810000     -35.75210000     -69.87360000
S      -43.81730000     -30.51930000     -72.88480000
S      -42.37090000     -36.17560000     -72.06080000
C      -45.38540000     -31.05770000     -72.17080000
H      -45.17110000     -31.70290000     -71.27690000
H      -45.97760000     -30.17990000     -71.76840000
C      -44.20690000     -36.07340000     -71.77750000
H      -44.39030000     -36.17860000     -70.65050000
H      -44.56130000     -36.95480000     -72.32260000
C      -45.03230000     -34.89490000     -72.23510000
H      -44.56380000     -33.94640000     -72.07380000
H      -45.13820000     -34.95400000     -73.32090000
C      -46.17950000     -31.85980000     -73.16710000
H      -45.58440000     -32.72880000     -73.54570000
H      -46.45000000     -31.23660000     -74.01460000
C      -47.40360000     -32.33710000     -72.43200000
C      -48.63970000     -31.64090000     -72.29240000
C      -47.42440000     -33.68990000     -71.81000000
H      -48.78630000     -30.55310000     -72.46510000
C      -48.62130000     -33.93150000     -71.20420000
C      -46.45490000     -34.77260000     -71.60410000
C      -47.00330000     -35.63950000     -70.72800000
S      -49.77400000     -32.60150000     -71.32890000
S      -48.71970000     -35.35570000     -70.26580000
H      -46.57720000     -36.51630000     -70.26730000
