40
Properties=species:S:1:pos:R:3 #=T CELL(abcABC):=T 1.889726e+02=T 90.00000=T Traj:=T positionsangstrom=T Step:=T 0=T Bead:=T pbc="F F F"
C      -42.74290000     -33.26270000     -68.02150000
C      -42.40030000     -33.64950000     -69.30900000
C      -42.55880000     -32.74770000     -70.37320000
C      -42.86990000     -31.40480000     -70.12360000
C      -43.09670000     -30.98450000     -68.80580000
C      -43.07630000     -31.90260000     -67.74740000
H      -42.96700000     -33.97190000     -67.17770000
H      -42.29800000     -32.99030000     -71.40760000
H      -43.42660000     -29.92460000     -68.64510000
H      -43.32160000     -31.61170000     -66.75010000
C      -42.69210000     -30.42950000     -71.24220000
H      -41.66460000     -30.29610000     -71.52280000
H      -42.91070000     -29.43010000     -70.97810000
C      -41.80140000     -35.04620000     -69.61800000
H      -40.69000000     -34.93630000     -69.52690000
H      -42.08230000     -35.71900000     -68.84000000
S      -43.47760000     -30.86290000     -72.85950000
S      -42.51330000     -35.85610000     -71.18430000
C      -45.21170000     -31.07230000     -72.39990000
H      -45.26840000     -31.56590000     -71.41510000
H      -45.74290000     -30.16160000     -72.25390000
C      -44.31420000     -35.82390000     -70.95130000
H      -44.59740000     -35.45760000     -69.95800000
H      -44.78900000     -36.85350000     -70.95510000
C      -45.04110000     -34.99210000     -71.90280000
H      -44.65760000     -33.93430000     -71.74410000
H      -44.80370000     -35.26140000     -72.94940000
C      -45.91800000     -32.02930000     -73.44170000
H      -45.28840000     -32.84450000     -73.70840000
H      -46.07250000     -31.43600000     -74.31520000
C      -47.23770000     -32.52750000     -72.87250000
C      -48.45490000     -31.98320000     -73.18770000
C      -47.40490000     -33.83060000     -72.17530000
H      -48.67780000     -31.10830000     -73.74610000
C      -48.74650000     -34.11000000     -71.93320000
C      -46.56850000     -34.95320000     -71.77260000
C      -47.25640000     -35.87830000     -71.04760000
S      -49.85070000     -32.90810000     -72.60910000
S      -49.04490000     -35.69470000     -71.17920000
H      -46.86030000     -36.81060000     -70.55160000
