40
Properties=species:S:1:pos:R:3 #=T CELL(abcABC):=T 1.889726e+02=T 90.00000=T Traj:=T positionsangstrom=T Step:=T 0=T Bead:=T pbc="F F F"
C      -42.77810000     -33.77090000     -68.72620000
C      -42.13790000     -33.92480000     -69.97350000
C      -42.16610000     -32.83850000     -70.82280000
C      -42.67820000     -31.57890000     -70.51430000
C      -43.38620000     -31.54110000     -69.32580000
C      -43.47300000     -32.60800000     -68.44420000
H      -42.76910000     -34.53040000     -67.98130000
H      -41.76770000     -32.85530000     -71.80770000
H      -43.95530000     -30.63610000     -69.15120000
H      -44.00630000     -32.62220000     -67.42020000
C      -42.66720000     -30.41910000     -71.44680000
H      -41.67400000     -30.14120000     -71.95800000
H      -43.03380000     -29.48330000     -70.86630000
C      -41.54460000     -35.23750000     -70.42620000
H      -40.49390000     -35.11930000     -70.64160000
H      -41.60820000     -36.00990000     -69.62660000
S      -43.71440000     -30.67520000     -72.92000000
S      -42.38780000     -35.97280000     -71.88100000
C      -45.36170000     -31.05640000     -72.13820000
H      -45.21390000     -31.72030000     -71.26790000
H      -45.86590000     -30.20830000     -71.65810000
C      -44.26170000     -36.00140000     -71.42780000
H      -44.39170000     -36.44200000     -70.44640000
H      -44.54570000     -36.68320000     -72.17680000
C      -44.96170000     -34.71540000     -71.79580000
H      -44.48490000     -33.78140000     -71.53360000
H      -45.08740000     -34.64750000     -72.91230000
C      -46.30760000     -31.73320000     -73.16120000
H      -45.77050000     -32.54670000     -73.70500000
H      -46.58380000     -31.05270000     -74.00980000
C      -47.43100000     -32.38910000     -72.52470000
C      -48.69120000     -31.82870000     -72.65420000
C      -47.40440000     -33.72880000     -71.88280000
H      -48.85770000     -30.98920000     -73.30670000
C      -48.64260000     -34.01100000     -71.41110000
C      -46.47340000     -34.69940000     -71.34530000
C      -47.04750000     -35.60760000     -70.52550000
S      -49.91740000     -32.81430000     -71.87040000
S      -48.84150000     -35.41380000     -70.42900000
H      -46.55230000     -36.36780000     -69.93950000
