40
Properties=species:S:1:pos:R:3 #=T CELL(abcABC):=T 1.889726e+02=T 90.00000=T Traj:=T positionsangstrom=T Step:=T 0=T Bead:=T pbc="F F F"
C      -42.75140000     -33.35370000     -68.14750000
C      -42.26020000     -33.71450000     -69.40830000
C      -42.24970000     -32.76190000     -70.43830000
C      -42.73860000     -31.48840000     -70.22860000
C      -43.10240000     -31.09610000     -68.87550000
C      -43.14180000     -32.06370000     -67.89590000
H      -42.56320000     -34.06470000     -67.33490000
H      -41.99260000     -33.05060000     -71.43430000
H      -43.37710000     -30.03190000     -68.63880000
H      -43.45050000     -31.81050000     -66.83840000
C      -42.71220000     -30.39280000     -71.31710000
H      -41.64070000     -30.31630000     -71.69560000
H      -43.11710000     -29.56210000     -70.76720000
C      -41.97230000     -35.19630000     -69.60460000
H      -40.93910000     -35.52490000     -69.64090000
H      -42.58640000     -35.77840000     -68.93460000
S      -43.60460000     -30.83130000     -72.82920000
S      -42.53200000     -35.87890000     -71.22130000
C      -45.33290000     -31.26210000     -72.32020000
H      -45.27110000     -31.84740000     -71.36770000
H      -45.94870000     -30.31880000     -72.26360000
C      -44.41120000     -35.83290000     -70.94940000
H      -44.53550000     -35.58970000     -69.93380000
H      -44.78060000     -36.81790000     -71.20680000
C      -45.05130000     -34.82730000     -71.78800000
H      -44.85740000     -33.84790000     -71.35980000
H      -44.61460000     -34.82080000     -72.81280000
C      -45.94220000     -32.07240000     -73.46640000
H      -45.33030000     -32.94870000     -73.69060000
H      -46.11650000     -31.41690000     -74.39320000
C      -47.23980000     -32.54630000     -72.95210000
C      -48.45120000     -31.90680000     -73.20000000
C      -47.44730000     -33.87560000     -72.32260000
H      -48.47220000     -30.88180000     -73.54470000
C      -48.76290000     -34.12580000     -72.02680000
C      -46.56760000     -34.96230000     -71.85310000
C      -47.25360000     -35.89500000     -71.09130000
S      -49.77570000     -32.72700000     -72.40800000
S      -48.96640000     -35.57320000     -71.01610000
H      -46.81650000     -36.69830000     -70.52090000
