40
Properties=species:S:1:pos:R:3 #=T CELL(abcABC):=T 1.889726e+02=T 90.00000=T Traj:=T positionsangstrom=T Step:=T 0=T Bead:=T pbc="F F F"
C      -43.63570000     -32.94510000     -68.06350000
C      -42.66050000     -33.28960000     -69.02080000
C      -42.39040000     -32.32120000     -70.00990000
C      -43.09940000     -31.07850000     -70.03060000
C      -44.06710000     -30.81330000     -69.05140000
C      -44.32880000     -31.77530000     -68.06070000
H      -43.82270000     -33.76890000     -67.35540000
H      -41.68700000     -32.55950000     -70.78300000
H      -44.64790000     -29.89380000     -69.02820000
H      -44.96100000     -31.47070000     -67.25980000
C      -42.80500000     -30.15930000     -71.15890000
H      -41.71300000     -30.06100000     -71.38700000
H      -43.28230000     -29.15360000     -70.94600000
C      -41.85220000     -34.56000000     -69.04020000
H      -40.77740000     -34.38300000     -69.17140000
H      -41.90230000     -35.13190000     -68.02050000
S      -43.52680000     -30.81880000     -72.67590000
S      -42.33610000     -35.70100000     -70.47090000
C      -45.27770000     -31.29240000     -72.39580000
H      -45.40510000     -31.76230000     -71.42590000
H      -46.02380000     -30.41660000     -72.37480000
C      -44.21820000     -35.71990000     -70.33510000
H      -44.47310000     -35.33690000     -69.34370000
H      -44.53460000     -36.71120000     -70.51190000
C      -44.87580000     -34.89900000     -71.44180000
H      -44.49290000     -33.88300000     -71.41680000
H      -44.49570000     -35.30440000     -72.32550000
C      -45.57760000     -32.37820000     -73.57960000
H      -44.82900000     -33.16320000     -73.56190000
H      -45.57400000     -31.83860000     -74.52600000
C      -46.92770000     -32.99660000     -73.38840000
C      -48.06920000     -32.79560000     -74.18660000
C      -47.16910000     -33.96980000     -72.37940000
H      -48.16990000     -32.02570000     -74.95290000
C      -48.50550000     -34.24690000     -72.31120000
C      -46.36250000     -34.83620000     -71.50990000
C      -47.13490000     -35.75890000     -70.89990000
S      -49.49390000     -33.61600000     -73.60450000
S      -48.89800000     -35.51120000     -71.15880000
H      -46.77170000     -36.54050000     -70.30800000
