40
Properties=species:S:1:pos:R:3 #=T CELL(abcABC):=T 1.889726e+02=T 90.00000=T Traj:=T positionsangstrom=T Step:=T 0=T Bead:=T pbc="F F F"
C      -43.49690000     -32.98810000     -67.98100000
C      -42.66820000     -33.33300000     -69.05280000
C      -42.58450000     -32.45650000     -70.14830000
C      -43.14840000     -31.14030000     -70.05140000
C      -43.79040000     -30.74180000     -68.86320000
C      -43.99020000     -31.70650000     -67.87220000
H      -43.66470000     -33.68510000     -67.15660000
H      -41.96780000     -32.67690000     -70.96440000
H      -44.30590000     -29.79370000     -68.81110000
H      -44.60030000     -31.44960000     -67.01370000
C      -43.01120000     -30.16890000     -71.14780000
H      -42.02570000     -29.76980000     -71.25040000
H      -43.52400000     -29.24250000     -70.92050000
C      -42.01030000     -34.65940000     -69.10460000
H      -40.91670000     -34.61970000     -69.20020000
H      -42.17270000     -35.19800000     -68.23600000
S      -43.51110000     -30.70110000     -72.87540000
S      -42.39660000     -35.65830000     -70.58710000
C      -45.19640000     -31.36180000     -72.59110000
H      -45.15450000     -31.84690000     -71.65710000
H      -45.98180000     -30.56850000     -72.44520000
C      -44.26710000     -35.72620000     -70.52300000
H      -44.46820000     -35.46110000     -69.46690000
H      -44.59700000     -36.79490000     -70.54410000
C      -44.83930000     -34.71290000     -71.46820000
H      -44.41650000     -33.72670000     -71.20180000
H      -44.50570000     -34.86550000     -72.52890000
C      -45.62970000     -32.32750000     -73.65780000
H      -44.89360000     -33.12970000     -73.85260000
H      -45.83040000     -31.76060000     -74.56090000
C      -46.94820000     -32.99160000     -73.32340000
C      -48.13100000     -32.54110000     -73.91370000
C      -47.23420000     -34.09180000     -72.41090000
H      -48.18540000     -31.68440000     -74.51680000
C      -48.53610000     -34.52910000     -72.40650000
C      -46.39670000     -34.74040000     -71.41170000
C      -47.11570000     -35.66560000     -70.66330000
S      -49.53140000     -33.56250000     -73.45260000
S      -48.78480000     -35.73210000     -71.11440000
H      -46.89080000     -36.35040000     -69.82740000
