40
Properties=species:S:1:pos:R:3 #=T CELL(abcABC):=T 1.889726e+02=T 90.00000=T Traj:=T positionsangstrom=T Step:=T 0=T Bead:=T pbc="F F F"
C      -46.74870000     -34.64290000     -67.89160000
C      -45.70930000     -34.38130000     -68.74090000
C      -45.68480000     -34.82040000     -70.10940000
C      -46.82590000     -35.47390000     -70.63640000
C      -47.89520000     -35.73820000     -69.79040000
C      -47.91060000     -35.33400000     -68.47480000
H      -46.81390000     -34.35430000     -66.87540000
H      -44.71490000     -34.65730000     -70.60500000
H      -48.72920000     -36.39320000     -70.20890000
H      -48.69720000     -35.54570000     -67.81560000
C      -46.87490000     -35.75660000     -72.08950000
H      -47.15010000     -36.81640000     -72.27060000
H      -45.90070000     -35.66090000     -72.67350000
C      -44.56860000     -33.53200000     -68.28170000
H      -44.15490000     -33.66770000     -67.32890000
H      -43.79400000     -33.52590000     -69.04780000
S      -48.07150000     -34.65100000     -72.90530000
S      -45.11320000     -31.73500000     -68.02920000
C      -47.81450000     -32.90140000     -72.31800000
H      -48.78940000     -32.44120000     -72.30960000
H      -47.33960000     -32.96360000     -71.35840000
C      -45.59330000     -31.29180000     -69.70410000
H      -46.38090000     -30.57200000     -69.55640000
H      -46.03120000     -32.15020000     -70.19700000
C      -44.60530000     -30.62360000     -70.68990000
H      -45.34130000     -30.04980000     -71.35110000
H      -44.13580000     -29.86970000     -70.11220000
C      -46.88670000     -32.01800000     -73.22390000
H      -46.97010000     -31.03950000     -72.76740000
H      -47.40920000     -31.84240000     -74.16840000
C      -45.44700000     -32.61220000     -73.38110000
C      -45.20760000     -33.47430000     -74.40300000
C      -44.26470000     -32.39870000     -72.59940000
H      -45.92940000     -33.93430000     -75.02660000
C      -43.17260000     -33.11990000     -73.10660000
C      -43.83970000     -31.59210000     -71.48550000
C      -42.54540000     -31.68920000     -71.17930000
S      -43.57790000     -34.14730000     -74.41110000
S      -41.72950000     -32.92780000     -72.12010000
H      -42.01840000     -31.15150000     -70.36820000
