40
Properties=species:S:1:pos:R:3 #=T CELL(abcABC):=T 1.889726e+02=T 90.00000=T Traj:=T positionsangstrom=T Step:=T 0=T Bead:=T pbc="F F F"
C      -43.71450000     -33.10910000     -68.11520000
C      -42.59810000     -33.25930000     -68.91090000
C      -42.28610000     -32.20840000     -69.85090000
C      -43.12780000     -31.11390000     -69.98590000
C      -44.28530000     -31.03480000     -69.12490000
C      -44.47510000     -31.95230000     -68.14830000
H      -43.85480000     -33.90300000     -67.33640000
H      -41.36050000     -32.33960000     -70.45450000
H      -44.82880000     -30.11340000     -69.27860000
H      -45.43580000     -31.75600000     -67.61940000
C      -42.96550000     -30.07590000     -71.02860000
H      -41.91940000     -29.81540000     -71.11650000
H      -43.54290000     -29.22860000     -70.84780000
C      -41.82900000     -34.57170000     -68.93800000
H      -40.80320000     -34.44830000     -69.04030000
H      -42.14850000     -35.12580000     -68.07950000
S      -43.38050000     -30.74530000     -72.80120000
S      -42.43840000     -35.62190000     -70.37730000
C      -45.07940000     -31.47530000     -72.41410000
H      -44.93130000     -32.03000000     -71.46290000
H      -45.70030000     -30.67240000     -72.33430000
C      -44.31610000     -35.67230000     -70.32310000
H      -44.75590000     -35.24470000     -69.38200000
H      -44.61210000     -36.75180000     -70.39070000
C      -44.90870000     -34.91300000     -71.46780000
H      -44.48910000     -33.82760000     -71.39540000
H      -44.56380000     -35.25470000     -72.49140000
C      -45.51240000     -32.40770000     -73.63050000
H      -44.67540000     -33.06410000     -73.92780000
H      -45.62760000     -31.80890000     -74.52470000
C      -46.84240000     -33.09850000     -73.42450000
C      -47.94270000     -32.61070000     -74.10690000
C      -47.16700000     -34.15150000     -72.52700000
H      -48.02770000     -31.80120000     -74.87350000
C      -48.53580000     -34.44750000     -72.51690000
C      -46.40660000     -34.87360000     -71.48940000
C      -47.21210000     -35.57140000     -70.67800000
S      -49.42190000     -33.45940000     -73.60610000
S      -48.90210000     -35.55150000     -71.19780000
H      -46.89910000     -36.29910000     -70.02350000
