40
Properties=species:S:1:pos:R:3 #=T CELL(abcABC):=T 1.889726e+02=T 90.00000=T Traj:=T positionsangstrom=T Step:=T 0=T Bead:=T pbc="F F F"
C      -46.77220000     -34.51270000     -67.93470000
C      -45.69380000     -34.29650000     -68.81700000
C      -45.69770000     -34.88310000     -70.11970000
C      -46.83000000     -35.61790000     -70.53800000
C      -47.89880000     -35.75130000     -69.68740000
C      -47.82570000     -35.33620000     -68.32530000
H      -46.72720000     -33.91660000     -66.94470000
H      -44.94940000     -34.62160000     -70.81330000
H      -48.90220000     -36.10050000     -69.98430000
H      -48.73490000     -35.25550000     -67.74740000
C      -46.92940000     -36.06750000     -72.00390000
H      -47.52870000     -36.92230000     -71.98100000
H      -45.98460000     -36.31210000     -72.45550000
C      -44.61670000     -33.31660000     -68.41220000
H      -44.20950000     -33.57330000     -67.43440000
H      -43.70550000     -33.22100000     -69.09530000
S      -47.88550000     -34.91490000     -73.05760000
S      -45.40060000     -31.63130000     -68.14360000
C      -47.63830000     -33.23920000     -72.24110000
H      -48.54570000     -32.80940000     -71.87990000
H      -47.11510000     -33.52530000     -71.29840000
C      -45.92050000     -31.08590000     -69.83780000
H      -46.67870000     -30.28500000     -69.72470000
H      -46.53300000     -31.91950000     -70.31310000
C      -44.70520000     -30.57160000     -70.75710000
H      -45.01000000     -29.94220000     -71.61670000
H      -43.98650000     -29.99720000     -70.18620000
C      -46.86870000     -32.14810000     -72.99270000
H      -46.76490000     -31.19030000     -72.42250000
H      -47.40810000     -31.97180000     -73.95830000
C      -45.45230000     -32.66080000     -73.28620000
C      -45.20510000     -33.57670000     -74.27710000
C      -44.22270000     -32.37010000     -72.53310000
H      -45.99100000     -33.93770000     -74.88280000
C      -43.15490000     -33.12410000     -72.99040000
C      -43.82990000     -31.53890000     -71.42700000
C      -42.48930000     -31.51880000     -71.29590000
S      -43.49820000     -34.20360000     -74.26930000
S      -41.62910000     -32.64040000     -72.25640000
H      -42.16930000     -30.82170000     -70.48370000
