40
Properties=species:S:1:pos:R:3 #=T CELL(abcABC):=T 1.889726e+02=T 90.00000=T Traj:=T positionsangstrom=T Step:=T 0=T Bead:=T pbc="F F F"
C      -47.67290000     -32.90750000     -69.35780000
C      -48.05820000     -33.81110000     -70.34900000
C      -47.65140000     -35.14390000     -70.17580000
C      -46.77490000     -35.53990000     -69.09870000
C      -46.54870000     -34.60220000     -68.09020000
C      -46.96110000     -33.28530000     -68.21810000
H      -47.99620000     -31.88630000     -69.30120000
H      -47.96070000     -35.82610000     -71.00080000
H      -45.76050000     -34.85490000     -67.32670000
H      -46.83130000     -32.67210000     -67.34550000
C      -46.16820000     -36.89140000     -68.99080000
H      -46.90600000     -37.69720000     -68.73100000
H      -45.55450000     -36.94430000     -68.08550000
C      -49.01370000     -33.50500000     -71.45530000
H      -49.90040000     -34.15160000     -71.50250000
H      -49.32670000     -32.50010000     -71.46790000
S      -45.06910000     -37.20310000     -70.45050000
S      -48.22200000     -33.78720000     -73.13110000
C      -43.97920000     -35.70440000     -70.56800000
H      -43.75840000     -35.30020000     -69.61130000
H      -43.04340000     -36.06770000     -70.89100000
C      -47.22820000     -32.23580000     -73.11590000
H      -47.05540000     -31.96200000     -72.07160000
H      -47.72650000     -31.47660000     -73.72360000
C      -45.86600000     -32.51680000     -73.88140000
H      -45.77650000     -33.60940000     -73.80360000
H      -46.10380000     -32.28980000     -74.92430000
C      -44.39560000     -34.69390000     -71.62490000
H      -45.48750000     -34.51760000     -71.47990000
H      -44.18790000     -35.11650000     -72.61580000
C      -43.60910000     -33.39780000     -71.50300000
C      -42.67890000     -33.18780000     -70.49030000
C      -43.78310000     -32.18900000     -72.30310000
H      -42.39490000     -33.73450000     -69.54230000
C      -42.85360000     -31.19360000     -72.05660000
C      -44.71790000     -31.74380000     -73.31710000
C      -44.47190000     -30.47330000     -73.77070000
S      -41.86070000     -31.61220000     -70.57170000
S      -43.00930000     -29.81390000     -73.09470000
H      -45.07940000     -29.93520000     -74.42930000
