40
Properties=species:S:1:pos:R:3 #=T CELL(abcABC):=T 1.889726e+02=T 90.00000=T Traj:=T positionsangstrom=T Step:=T 0=T Bead:=T pbc="F F F"
C      -47.20090000     -33.16990000     -68.42350000
C      -45.96120000     -32.87360000     -69.06460000
C      -45.37440000     -33.96020000     -69.70850000
C      -45.94940000     -35.25880000     -69.60030000
C      -47.17920000     -35.45980000     -68.96970000
C      -47.76820000     -34.46160000     -68.25340000
H      -47.72300000     -32.30810000     -67.98450000
H      -44.53270000     -33.70170000     -70.28000000
H      -47.54070000     -36.44550000     -68.96870000
H      -48.57830000     -34.62240000     -67.53640000
C      -45.33660000     -36.39240000     -70.38710000
H      -45.31800000     -37.36740000     -69.79050000
H      -44.29280000     -36.16180000     -70.61390000
C      -45.29670000     -31.52680000     -69.01350000
H      -45.22560000     -31.16470000     -68.01200000
H      -44.27080000     -31.50610000     -69.44780000
S      -46.38760000     -36.79780000     -71.90200000
S      -46.28030000     -30.24180000     -69.87310000
C      -47.18940000     -35.17300000     -72.33790000
H      -48.21510000     -35.48860000     -72.60920000
H      -47.24380000     -34.48170000     -71.55210000
C      -47.19670000     -31.07460000     -71.24340000
H      -48.07640000     -30.47180000     -71.41310000
H      -47.53240000     -32.07660000     -70.96860000
C      -46.48290000     -31.10350000     -72.59000000
H      -47.00460000     -31.77050000     -73.21530000
H      -46.72040000     -30.16600000     -73.06600000
C      -46.53870000     -34.43630000     -73.58440000
H      -47.20810000     -33.56040000     -73.67750000
H      -46.57120000     -35.15330000     -74.39210000
C      -45.07250000     -34.07070000     -73.31120000
C      -44.17070000     -35.09100000     -73.39460000
C      -44.51940000     -32.84870000     -72.73760000
H      -44.29350000     -36.07990000     -73.79930000
C      -43.17710000     -32.99030000     -72.47780000
C      -44.98280000     -31.50620000     -72.62410000
C      -43.96810000     -30.64720000     -72.27990000
S      -42.57670000     -34.51540000     -72.86550000
S      -42.45260000     -31.49370000     -71.94380000
H      -44.15550000     -29.54820000     -72.15580000
