40
Properties=species:S:1:pos:R:3 #=T CELL(abcABC):=T 1.889726e+02=T 90.00000=T Traj:=T positionsangstrom=T Step:=T 0=T Bead:=T pbc="F F F"
C      -44.37770000     -33.28960000     -68.24730000
C      -43.08520000     -33.43440000     -68.78300000
C      -42.53000000     -32.32230000     -69.48630000
C      -43.24240000     -31.15860000     -69.69620000
C      -44.45000000     -31.04300000     -69.04070000
C      -44.99210000     -32.05670000     -68.28510000
H      -44.67110000     -34.15960000     -67.65530000
H      -41.54500000     -32.50080000     -70.01780000
H      -44.97000000     -30.09450000     -68.95270000
H      -45.94130000     -31.93320000     -67.82090000
C      -42.75090000     -30.13430000     -70.61840000
H      -41.64800000     -30.02410000     -70.50000000
H      -43.16640000     -29.12320000     -70.50700000
C      -42.26780000     -34.69870000     -68.77810000
H      -41.23250000     -34.43140000     -68.72310000
H      -42.60560000     -35.28830000     -67.87010000
S      -43.03920000     -30.72290000     -72.44890000
S      -42.52380000     -35.72020000     -70.28190000
C      -44.60630000     -31.72390000     -72.29050000
H      -44.20440000     -32.38470000     -71.57060000
H      -45.42610000     -31.14790000     -71.75680000
C      -44.34420000     -35.95480000     -70.46180000
H      -44.91760000     -35.82170000     -69.49190000
H      -44.45960000     -37.02170000     -70.82190000
C      -44.91510000     -34.95570000     -71.53610000
H      -44.58610000     -33.96420000     -71.29210000
H      -44.44330000     -35.16090000     -72.56330000
C      -45.16260000     -32.42690000     -73.61820000
H      -44.54320000     -33.30630000     -73.88720000
H      -44.96360000     -31.71730000     -74.48980000
C      -46.57700000     -32.92070000     -73.48740000
C      -47.67840000     -32.24830000     -74.02370000
C      -47.02150000     -33.97180000     -72.60330000
H      -47.70840000     -31.41880000     -74.73370000
C      -48.42700000     -34.14980000     -72.59750000
C      -46.37310000     -34.96520000     -71.74350000
C      -47.31120000     -35.88660000     -71.27020000
S      -49.25590000     -33.00120000     -73.65160000
S      -48.98300000     -35.54840000     -71.68140000
H      -47.17200000     -36.78390000     -70.68600000
