40
Properties=species:S:1:pos:R:3 #=T CELL(abcABC):=T 1.889726e+02=T 90.00000=T Traj:=T positionsangstrom=T Step:=T 0=T Bead:=T pbc="F F F"
C      -44.29130000     -33.21740000     -68.18110000
C      -43.10750000     -33.46390000     -68.90010000
C      -42.59250000     -32.35480000     -69.65810000
C      -43.33200000     -31.18240000     -69.81870000
C      -44.58390000     -31.10200000     -69.17790000
C      -44.99720000     -32.02670000     -68.24940000
H      -44.65920000     -34.01560000     -67.55800000
H      -41.51270000     -32.58920000     -70.01060000
H      -45.28530000     -30.26930000     -69.53410000
H      -45.92080000     -31.85590000     -67.70820000
C      -42.93430000     -30.07900000     -70.81720000
H      -41.87090000     -29.77450000     -70.70980000
H      -43.63420000     -29.27980000     -70.62570000
C      -42.37030000     -34.72910000     -68.71720000
H      -41.26730000     -34.54930000     -68.56560000
H      -42.73600000     -35.27330000     -67.82900000
S      -43.15730000     -30.60720000     -72.55200000
S      -42.45610000     -35.77260000     -70.27480000
C      -44.88880000     -31.29910000     -72.31590000
H      -44.95620000     -31.84550000     -71.40650000
H      -45.82080000     -30.58100000     -72.32670000
C      -44.21400000     -36.12420000     -70.50440000
H      -44.59240000     -36.02590000     -69.51530000
H      -44.30470000     -37.24180000     -70.72460000
C      -44.85180000     -35.10420000     -71.58070000
H      -44.49890000     -34.14940000     -71.32550000
H      -44.55310000     -35.32340000     -72.57240000
C      -45.09040000     -32.32070000     -73.49920000
H      -44.33680000     -33.08000000     -73.59070000
H      -45.13960000     -31.62870000     -74.30360000
C      -46.47770000     -32.96520000     -73.37110000
C      -47.56500000     -32.33040000     -73.97220000
C      -46.95570000     -34.04630000     -72.58420000
H      -47.50080000     -31.38390000     -74.51760000
C      -48.33480000     -34.19890000     -72.57900000
C      -46.33470000     -35.06120000     -71.63080000
C      -47.29170000     -35.97110000     -71.16310000
S      -49.13070000     -33.05570000     -73.57670000
S      -48.97430000     -35.49000000     -71.60600000
H      -47.06360000     -36.74720000     -70.42480000
