40
Properties=species:S:1:pos:R:3 #=T CELL(abcABC):=T 1.889726e+02=T 90.00000=T Traj:=T positionsangstrom=T Step:=T 0=T Bead:=T pbc="F F F"
C      -44.32610000     -33.24630000     -68.17550000
C      -43.22040000     -33.48350000     -69.00060000
C      -42.85430000     -32.46090000     -69.80960000
C      -43.44860000     -31.16450000     -69.79710000
C      -44.54570000     -30.93780000     -68.98770000
C      -44.99160000     -32.04310000     -68.24160000
H      -44.62360000     -34.03580000     -67.55840000
H      -42.11250000     -32.58270000     -70.67380000
H      -45.10440000     -29.97510000     -68.88090000
H      -45.81990000     -31.92520000     -67.48410000
C      -42.88780000     -30.13690000     -70.76970000
H      -41.82960000     -30.04890000     -70.79480000
H      -43.33530000     -29.15300000     -70.55710000
C      -42.44370000     -34.71270000     -68.78330000
H      -41.36930000     -34.51240000     -68.65290000
H      -42.75980000     -35.19920000     -67.92540000
S      -43.24140000     -30.58260000     -72.57620000
S      -42.40640000     -35.92000000     -70.16180000
C      -44.99380000     -31.03090000     -72.79860000
H      -45.31760000     -30.97690000     -71.73820000
H      -45.49220000     -30.24260000     -73.29120000
C      -44.25050000     -36.09130000     -70.50800000
H      -44.74340000     -36.06080000     -69.54330000
H      -44.50300000     -37.01890000     -71.01360000
C      -44.68450000     -34.95080000     -71.53790000
H      -44.20370000     -33.93280000     -71.23870000
H      -44.20040000     -35.28080000     -72.52410000
C      -45.12730000     -32.41390000     -73.46390000
H      -44.40720000     -33.10290000     -72.98040000
H      -44.74250000     -32.29580000     -74.49370000
C      -46.58030000     -32.95520000     -73.41410000
C      -47.69670000     -32.38810000     -74.03830000
C      -46.94450000     -34.05080000     -72.60470000
H      -47.67390000     -31.49270000     -74.68350000
C      -48.29650000     -34.18630000     -72.53690000
C      -46.20420000     -34.90530000     -71.66480000
C      -47.05200000     -35.82620000     -71.07750000
S      -49.21540000     -33.11730000     -73.60530000
S      -48.74850000     -35.56540000     -71.44810000
H      -46.82460000     -36.56660000     -70.31950000
