40
Properties=species:S:1:pos:R:3 #=T CELL(abcABC):=T 1.889726e+02=T 90.00000=T Traj:=T positionsangstrom=T Step:=T 0=T Bead:=T pbc="F F F"
C      -44.08860000     -33.14240000     -68.00080000
C      -43.02810000     -33.54890000     -68.85530000
C      -42.39230000     -32.56020000     -69.55450000
C      -42.85420000     -31.21640000     -69.58280000
C      -43.98590000     -30.83800000     -68.83130000
C      -44.59340000     -31.81290000     -68.01540000
H      -44.69830000     -33.79120000     -67.41390000
H      -41.49790000     -32.78910000     -70.08170000
H      -44.39190000     -29.75590000     -68.85460000
H      -45.43960000     -31.58600000     -67.36950000
C      -42.51670000     -30.21340000     -70.64970000
H      -41.43880000     -30.16140000     -70.89250000
H      -42.76790000     -29.17120000     -70.36760000
C      -42.50150000     -34.91180000     -68.74480000
H      -41.42960000     -34.97670000     -68.60330000
H      -42.96840000     -35.50480000     -67.92330000
S      -43.37390000     -30.47140000     -72.32260000
S      -42.60200000     -36.00090000     -70.28470000
C      -44.95150000     -31.40680000     -71.97140000
H      -44.75780000     -32.18460000     -71.19820000
H      -45.76150000     -30.62060000     -71.78650000
C      -44.37990000     -35.96660000     -70.59170000
H      -44.91920000     -35.53600000     -69.67490000
H      -44.74210000     -37.03730000     -70.85530000
C      -44.85780000     -35.14500000     -71.78070000
H      -44.46090000     -34.15540000     -71.70210000
H      -44.38880000     -35.56260000     -72.67290000
C      -45.32570000     -32.12190000     -73.29620000
H      -44.53350000     -32.86520000     -73.48480000
H      -45.30170000     -31.32180000     -74.07550000
C      -46.68830000     -32.71080000     -73.35570000
C      -47.81190000     -32.11460000     -73.89450000
C      -47.04740000     -33.95190000     -72.68940000
H      -47.86610000     -31.01400000     -74.09860000
C      -48.37700000     -34.24220000     -72.76050000
C      -46.37140000     -35.11050000     -72.06530000
C      -47.21060000     -36.09200000     -71.62740000
S      -49.30490000     -32.96650000     -73.57710000
S      -48.94570000     -35.68600000     -72.03130000
H      -46.80220000     -36.84110000     -71.02930000
