40
Properties=species:S:1:pos:R:3 #=T CELL(abcABC):=T 1.889726e+02=T 90.00000=T Traj:=T positionsangstrom=T Step:=T 0=T Bead:=T pbc="F F F"
C      -44.03610000     -33.17470000     -67.63610000
C      -43.06540000     -33.67240000     -68.50410000
C      -42.64370000     -32.82540000     -69.49960000
C      -43.18970000     -31.56260000     -69.65010000
C      -44.08520000     -31.01890000     -68.69770000
C      -44.51080000     -31.88290000     -67.68640000
H      -44.27250000     -33.67280000     -66.73770000
H      -42.03980000     -33.20790000     -70.31270000
H      -44.35680000     -29.93850000     -68.81040000
H      -45.29610000     -31.53630000     -66.95850000
C      -42.78240000     -30.42980000     -70.61030000
H      -41.65390000     -30.34270000     -70.73790000
H      -43.10340000     -29.50690000     -70.13470000
C      -42.68610000     -35.13310000     -68.46290000
H      -41.66270000     -35.29630000     -68.11820000
H      -43.43500000     -35.60950000     -67.85660000
S      -43.20600000     -30.52190000     -72.40900000
S      -42.71670000     -35.89020000     -70.14150000
C      -44.97720000     -30.85190000     -72.64140000
H      -45.49630000     -31.03800000     -71.72120000
H      -45.37450000     -29.95680000     -73.04240000
C      -44.54880000     -35.92200000     -70.56600000
H      -45.02560000     -36.07320000     -69.65750000
H      -44.71400000     -36.78330000     -71.18540000
C      -44.90980000     -34.73960000     -71.36120000
H      -44.71600000     -33.77470000     -70.83000000
H      -44.14880000     -34.75990000     -72.22550000
C      -45.19720000     -32.06250000     -73.51860000
H      -44.46270000     -32.88660000     -73.37690000
H      -45.04950000     -31.74860000     -74.55330000
C      -46.64540000     -32.60050000     -73.32510000
C      -47.69580000     -32.05400000     -73.99430000
C      -47.01410000     -33.82670000     -72.60650000
H      -47.64180000     -31.18860000     -74.70500000
C      -48.27880000     -34.21010000     -72.85320000
C      -46.37140000     -34.81930000     -71.81130000
C      -47.16230000     -35.94030000     -71.59580000
S      -49.17880000     -33.12860000     -73.89520000
S      -48.78120000     -35.74810000     -72.23460000
H      -46.90260000     -36.86270000     -71.19840000
