40
Properties=species:S:1:pos:R:3 #=T CELL(abcABC):=T 1.889726e+02=T 90.00000=T Traj:=T positionsangstrom=T Step:=T 0=T Bead:=T pbc="F F F"
C      -44.01690000     -33.27990000     -68.00280000
C      -42.87400000     -33.46060000     -68.80280000
C      -42.52330000     -32.45900000     -69.67200000
C      -43.16990000     -31.21370000     -69.67150000
C      -44.29070000     -31.07790000     -68.82610000
C      -44.69450000     -32.10210000     -67.93800000
H      -44.26670000     -34.20590000     -67.44460000
H      -41.63570000     -32.51190000     -70.32980000
H      -44.72660000     -30.13250000     -68.74280000
H      -45.72350000     -31.93160000     -67.60280000
C      -42.81260000     -30.12360000     -70.58840000
H      -41.70970000     -29.93830000     -70.50150000
H      -43.46330000     -29.29450000     -70.34070000
C      -42.26810000     -34.84770000     -68.81160000
H      -41.14490000     -34.83190000     -68.67250000
H      -42.69340000     -35.45330000     -68.00920000
S      -43.17240000     -30.59140000     -72.35420000
S      -42.52850000     -35.67080000     -70.46240000
C      -44.90850000     -31.38620000     -72.35350000
H      -45.01060000     -32.03230000     -71.43450000
H      -45.59120000     -30.52220000     -72.37620000
C      -44.39110000     -35.68730000     -70.55760000
H      -44.71460000     -34.86260000     -69.80180000
H      -44.81220000     -36.73050000     -70.22000000
C      -44.85190000     -35.31750000     -71.92770000
H      -44.43170000     -34.31560000     -72.12210000
H      -44.50730000     -36.05050000     -72.65150000
C      -45.31530000     -32.22390000     -73.59610000
H      -44.52980000     -32.98500000     -73.79550000
H      -45.35350000     -31.56910000     -74.46410000
C      -46.66600000     -32.80480000     -73.23860000
C      -47.80930000     -32.07550000     -73.60960000
C      -47.04070000     -34.03970000     -72.61210000
H      -47.94510000     -31.22850000     -74.30440000
C      -48.44710000     -34.16420000     -72.50920000
C      -46.32550000     -35.21880000     -72.00900000
C      -47.23530000     -36.19260000     -71.70070000
S      -49.32440000     -32.85090000     -73.24050000
S      -48.91810000     -35.77050000     -72.03510000
H      -47.06410000     -37.17590000     -71.29150000
