40
Properties=species:S:1:pos:R:3 #=T CELL(abcABC):=T 1.889726e+02=T 90.00000=T Traj:=T positionsangstrom=T Step:=T 0=T Bead:=T pbc="F F F"
C      -43.86090000     -33.29870000     -67.73760000
C      -42.97790000     -33.45270000     -68.76410000
C      -42.75480000     -32.42550000     -69.69250000
C      -43.44660000     -31.22390000     -69.57780000
C      -44.33730000     -31.08850000     -68.52050000
C      -44.59850000     -32.11380000     -67.63330000
H      -44.03230000     -34.08940000     -67.03800000
H      -41.96500000     -32.45000000     -70.44500000
H      -44.97390000     -30.14190000     -68.61110000
H      -45.11080000     -31.96820000     -66.69250000
C      -43.23260000     -30.09570000     -70.54760000
H      -42.15700000     -29.75090000     -70.49390000
H      -43.89940000     -29.27080000     -70.27120000
C      -42.16970000     -34.74870000     -68.89610000
H      -41.11860000     -34.57730000     -68.84030000
H      -42.60180000     -35.38610000     -68.04510000
S      -43.27400000     -30.70910000     -72.27110000
S      -42.52010000     -35.61610000     -70.46810000
C      -44.99110000     -31.50950000     -72.26920000
H      -45.13330000     -32.18530000     -71.51490000
H      -45.73090000     -30.74670000     -72.02380000
C      -44.34430000     -35.28540000     -70.71490000
H      -44.54130000     -34.30370000     -70.24330000
H      -44.98290000     -35.93210000     -70.10530000
C      -44.72100000     -35.34650000     -72.21500000
H      -44.20850000     -34.47640000     -72.77880000
H      -44.36040000     -36.31360000     -72.62350000
C      -45.33090000     -32.15190000     -73.64460000
H      -44.57800000     -32.86550000     -74.00520000
H      -45.47320000     -31.39460000     -74.39820000
C      -46.70300000     -32.77170000     -73.36240000
C      -47.85020000     -32.08990000     -73.73810000
C      -46.99400000     -34.09260000     -72.75540000
H      -47.82110000     -31.08060000     -74.06800000
C      -48.36760000     -34.24350000     -72.62980000
C      -46.21260000     -35.19700000     -72.28920000
C      -47.02970000     -36.16950000     -71.81380000
S      -49.34140000     -32.92310000     -73.23710000
S      -48.69780000     -35.82630000     -71.98920000
H      -46.77890000     -37.17480000     -71.47740000
