40
Properties=species:S:1:pos:R:3 #=T CELL(abcABC):=T 1.889726e+02=T 90.00000=T Traj:=T positionsangstrom=T Step:=T 0=T Bead:=T pbc="F F F"
C      -43.95360000     -33.30050000     -67.80820000
C      -42.88770000     -33.42510000     -68.68960000
C      -42.62370000     -32.33740000     -69.56010000
C      -43.40550000     -31.19180000     -69.62970000
C      -44.43390000     -31.10220000     -68.65360000
C      -44.64510000     -32.10240000     -67.68400000
H      -44.19690000     -34.08750000     -67.08760000
H      -41.92310000     -32.48970000     -70.36170000
H      -44.95500000     -30.11560000     -68.61760000
H      -45.36270000     -31.84380000     -66.90230000
C      -43.11920000     -30.15160000     -70.65340000
H      -42.18630000     -29.58720000     -70.53440000
H      -43.85210000     -29.35420000     -70.58930000
C      -42.14230000     -34.74980000     -68.86730000
H      -41.07700000     -34.59780000     -69.03780000
H      -42.20690000     -35.43690000     -68.03800000
S      -43.19950000     -30.83140000     -72.40320000
S      -42.53900000     -35.75470000     -70.44130000
C      -44.95070000     -31.24630000     -72.22220000
H      -45.00920000     -31.87780000     -71.26730000
H      -45.43050000     -30.27550000     -72.15590000
C      -44.36170000     -35.55100000     -70.68100000
H      -44.61090000     -34.67180000     -70.07510000
H      -44.84150000     -36.43850000     -70.39340000
C      -44.78000000     -35.34830000     -72.14190000
H      -44.30200000     -34.51450000     -72.70650000
H      -44.38950000     -36.12350000     -72.72680000
C      -45.35620000     -32.14150000     -73.43420000
H      -44.57420000     -32.94070000     -73.46690000
H      -45.30140000     -31.55070000     -74.34230000
C      -46.69830000     -32.77850000     -73.37090000
C      -47.84320000     -32.02200000     -73.64440000
C      -47.02030000     -34.08050000     -72.82350000
H      -47.82900000     -30.97570000     -73.83860000
C      -48.41270000     -34.29530000     -72.86050000
C      -46.23460000     -35.21350000     -72.35520000
C      -47.02800000     -36.17450000     -71.81800000
S      -49.32420000     -32.83120000     -73.17950000
S      -48.79770000     -35.69860000     -71.91840000
H      -46.86670000     -37.01370000     -71.12320000
