40
Properties=species:S:1:pos:R:3 #=T CELL(abcABC):=T 1.889726e+02=T 90.00000=T Traj:=T positionsangstrom=T Step:=T 0=T Bead:=T pbc="F F F"
C      -43.70190000     -33.17190000     -67.60520000
C      -42.84740000     -33.34240000     -68.70280000
C      -42.50340000     -32.19770000     -69.47420000
C      -43.18530000     -30.98870000     -69.33180000
C      -43.99670000     -30.82320000     -68.16400000
C      -44.28510000     -31.88920000     -67.33820000
H      -44.08160000     -34.11410000     -67.19650000
H      -41.74810000     -32.33490000     -70.25880000
H      -44.61030000     -29.92740000     -68.04360000
H      -45.00460000     -31.76640000     -66.51890000
C      -43.19100000     -29.95640000     -70.44950000
H      -42.17930000     -29.52440000     -70.38300000
H      -44.00990000     -29.28800000     -70.44820000
C      -42.18240000     -34.68740000     -68.97160000
H      -41.15490000     -34.62550000     -68.76490000
H      -42.68850000     -35.39830000     -68.37480000
S      -43.35640000     -30.85980000     -72.11630000
S      -42.42090000     -35.20890000     -70.76010000
C      -44.92650000     -31.68740000     -71.98030000
H      -44.93970000     -32.60450000     -71.32230000
H      -45.69730000     -31.06320000     -71.44730000
C      -44.29560000     -35.35030000     -70.80510000
H      -44.73250000     -34.53230000     -70.20730000
H      -44.55840000     -36.32700000     -70.30740000
C      -44.81020000     -35.26130000     -72.23320000
H      -44.38410000     -34.33820000     -72.68180000
H      -44.38600000     -35.99140000     -72.91810000
C      -45.44360000     -32.12110000     -73.35620000
H      -44.69470000     -32.84050000     -73.75140000
H      -45.46860000     -31.22990000     -73.94040000
C      -46.83970000     -32.86320000     -73.30300000
C      -47.95530000     -32.23740000     -73.74980000
C      -47.17140000     -34.10840000     -72.66500000
H      -47.95390000     -31.22010000     -74.20310000
C      -48.52490000     -34.45660000     -72.75050000
C      -46.36060000     -35.26500000     -72.25460000
C      -47.11380000     -36.38980000     -71.99470000
S      -49.43130000     -33.12520000     -73.59740000
S      -48.85490000     -36.05730000     -72.15400000
H      -46.85650000     -37.41010000     -71.76430000
