40
Properties=species:S:1:pos:R:3 #=T CELL(abcABC):=T 1.889726e+02=T 90.00000=T Traj:=T positionsangstrom=T Step:=T 0=T Bead:=T pbc="F F F"
C      -43.68040000     -33.54490000     -67.92910000
C      -42.73240000     -33.46430000     -68.97930000
C      -42.56810000     -32.20150000     -69.63060000
C      -43.42210000     -31.17010000     -69.34400000
C      -44.39380000     -31.30160000     -68.29010000
C      -44.49760000     -32.45790000     -67.56000000
H      -43.72820000     -34.48220000     -67.39730000
H      -42.02960000     -32.15660000     -70.52500000
H      -44.96900000     -30.44180000     -67.93590000
H      -45.20260000     -32.48080000     -66.76270000
C      -43.39130000     -29.85440000     -70.06990000
H      -42.32250000     -29.49810000     -70.09880000
H      -43.97810000     -29.07480000     -69.53310000
C      -41.95240000     -34.64230000     -69.39330000
H      -40.87350000     -34.51070000     -69.22180000
H      -42.16510000     -35.53590000     -68.72610000
S      -43.97110000     -30.06170000     -71.80030000
S      -42.06570000     -35.02630000     -71.20860000
C      -45.34420000     -31.35910000     -71.69950000
H      -44.92340000     -32.11480000     -71.12810000
H      -46.15580000     -30.82900000     -71.15320000
C      -43.94390000     -35.21830000     -71.29350000
H      -44.51610000     -34.41740000     -70.76890000
H      -44.23650000     -36.09960000     -70.75970000
C      -44.59740000     -35.23410000     -72.72730000
H      -44.24950000     -34.40280000     -73.30370000
H      -44.22330000     -36.13040000     -73.25250000
C      -45.75480000     -31.84740000     -73.10690000
H      -44.84640000     -32.40010000     -73.47070000
H      -45.92780000     -31.01190000     -73.82100000
C      -46.95290000     -32.69360000     -73.00070000
C      -48.22550000     -32.15760000     -73.12130000
C      -47.03250000     -34.17060000     -72.72900000
H      -48.50340000     -31.16650000     -73.37190000
C      -48.33010000     -34.69780000     -72.61120000
C      -46.10290000     -35.26780000     -72.49440000
C      -46.72960000     -36.47430000     -72.26700000
S      -49.46250000     -33.43760000     -72.99910000
S      -48.44560000     -36.37670000     -72.16830000
H      -46.29330000     -37.44020000     -72.34320000
