40
Properties=species:S:1:pos:R:3 #=T CELL(abcABC):=T 1.889726e+02=T 90.00000=T Traj:=T positionsangstrom=T Step:=T 0=T Bead:=T pbc="F F F"
C      -43.53590000     -33.55480000     -67.91150000
C      -42.67760000     -33.45960000     -69.04970000
C      -42.64290000     -32.26060000     -69.67360000
C      -43.54710000     -31.20530000     -69.36890000
C      -44.36850000     -31.34820000     -68.26790000
C      -44.38170000     -32.51490000     -67.53890000
H      -43.59020000     -34.49960000     -67.25110000
H      -41.84550000     -32.10540000     -70.41210000
H      -45.06990000     -30.61700000     -68.02020000
H      -45.09810000     -32.62220000     -66.76080000
C      -43.59820000     -29.88510000     -70.14650000
H      -42.70590000     -29.31460000     -70.21040000
H      -44.26150000     -29.22380000     -69.75840000
C      -41.76460000     -34.51910000     -69.51530000
H      -40.79690000     -34.11740000     -69.52080000
H      -41.82010000     -35.35320000     -68.81190000
S      -44.12760000     -30.13340000     -71.88060000
S      -42.15030000     -35.00680000     -71.29010000
C      -45.27370000     -31.53860000     -71.72570000
H      -44.96860000     -32.48560000     -71.19720000
H      -46.12570000     -31.16910000     -71.11330000
C      -43.98570000     -35.27900000     -71.19650000
H      -44.39340000     -34.52260000     -70.50710000
H      -44.19840000     -36.25040000     -70.72790000
C      -44.55620000     -35.18920000     -72.66570000
H      -44.15600000     -34.26590000     -73.11730000
H      -44.30940000     -36.08180000     -73.24980000
C      -45.69650000     -31.94520000     -73.19870000
H      -44.90240000     -32.48500000     -73.73870000
H      -45.69160000     -31.09300000     -73.85650000
C      -46.93780000     -32.74380000     -73.21020000
C      -48.21650000     -32.15420000     -73.17630000
C      -47.01210000     -34.15540000     -72.81920000
H      -48.60160000     -31.25390000     -73.49290000
C      -48.28860000     -34.63460000     -72.57080000
C      -46.10660000     -35.22250000     -72.65980000
C      -46.69160000     -36.43950000     -72.32850000
S      -49.41450000     -33.35460000     -72.66570000
S      -48.40900000     -36.28430000     -72.04520000
H      -46.03890000     -37.17350000     -71.95100000
