40
Properties=species:S:1:pos:R:3 #=T CELL(abcABC):=T 1.889726e+02=T 90.00000=T Traj:=T positionsangstrom=T Step:=T 0=T Bead:=T pbc="F F F"
C      -43.59420000     -33.42670000     -67.79650000
C      -42.56470000     -33.28830000     -68.74070000
C      -42.39670000     -32.05630000     -69.42980000
C      -43.37040000     -31.03620000     -69.34210000
C      -44.42250000     -31.21070000     -68.42280000
C      -44.54700000     -32.38490000     -67.62900000
H      -43.66960000     -34.41230000     -67.25260000
H      -41.59320000     -31.93580000     -70.19720000
H      -45.16700000     -30.43980000     -68.33460000
H      -45.20460000     -32.47490000     -66.80150000
C      -43.37210000     -29.80090000     -70.18500000
H      -42.47490000     -29.16410000     -70.34430000
H      -44.11150000     -29.08740000     -69.70120000
C      -41.73410000     -34.50430000     -69.19870000
H      -40.65420000     -34.26500000     -69.29120000
H      -41.78130000     -35.33260000     -68.43900000
S      -43.90080000     -30.21830000     -71.91200000
S      -42.26790000     -35.14910000     -70.90010000
C      -45.50980000     -31.07140000     -71.58940000
H      -45.28830000     -31.64740000     -70.71680000
H      -46.40950000     -30.45150000     -71.44760000
C      -44.10850000     -35.20050000     -70.85300000
H      -44.57890000     -34.40760000     -70.26680000
H      -44.45980000     -36.11430000     -70.38020000
C      -44.57520000     -35.17030000     -72.29170000
H      -44.19920000     -34.24870000     -72.65020000
H      -44.11950000     -36.01200000     -72.84330000
C      -45.71130000     -31.98970000     -72.86360000
H      -44.91180000     -32.71700000     -73.09570000
H      -45.65610000     -31.39680000     -73.75310000
C      -46.96560000     -32.78460000     -72.97720000
C      -48.24270000     -32.26850000     -73.12570000
C      -47.04830000     -34.22250000     -72.83700000
H      -48.36760000     -31.20210000     -73.25190000
C      -48.33530000     -34.71360000     -72.91270000
C      -46.03830000     -35.29350000     -72.54490000
C      -46.63640000     -36.53610000     -72.51690000
S      -49.52180000     -33.45850000     -73.24770000
S      -48.43890000     -36.41900000     -72.57220000
H      -46.33610000     -37.50320000     -72.11600000
