40
Properties=species:S:1:pos:R:3 #=T CELL(abcABC):=T 1.889726e+02=T 90.00000=T Traj:=T positionsangstrom=T Step:=T 0=T Bead:=T pbc="F F F"
C      -43.20090000     -33.40620000     -67.81130000
C      -42.63590000     -33.26240000     -69.06580000
C      -42.91570000     -32.06350000     -69.87420000
C      -43.69640000     -31.03840000     -69.35050000
C      -44.36100000     -31.31620000     -68.11720000
C      -44.06010000     -32.46290000     -67.30830000
H      -42.95540000     -34.19300000     -67.14470000
H      -42.56010000     -32.02820000     -70.95450000
H      -45.09010000     -30.55460000     -67.74100000
H      -44.52710000     -32.67670000     -66.34390000
C      -43.98180000     -29.84300000     -70.16240000
H      -43.22270000     -29.14680000     -69.91340000
H      -44.97540000     -29.46330000     -69.99160000
C      -41.76420000     -34.39530000     -69.57680000
H      -40.69410000     -34.09990000     -69.54680000
H      -41.80890000     -35.26390000     -68.95910000
S      -43.89850000     -30.16810000     -71.98320000
S      -42.15690000     -34.93360000     -71.28770000
C      -45.05190000     -31.60730000     -71.96650000
H      -44.50070000     -32.49380000     -71.65860000
H      -45.78190000     -31.40920000     -71.15830000
C      -43.96140000     -35.17870000     -71.28110000
H      -44.32340000     -34.26160000     -70.76760000
H      -44.35450000     -36.09040000     -70.77790000
C      -44.61380000     -35.35280000     -72.65550000
H      -44.39930000     -34.60140000     -73.40510000
H      -44.27560000     -36.28870000     -73.07960000
C      -45.71900000     -31.98180000     -73.27440000
H      -44.88150000     -32.47640000     -73.83860000
H      -45.94810000     -31.03440000     -73.87490000
C      -46.93560000     -32.86360000     -73.07310000
C      -48.17720000     -32.25340000     -72.96540000
C      -47.04120000     -34.25850000     -72.78040000
H      -48.35150000     -31.15320000     -72.99550000
C      -48.36580000     -34.65620000     -72.48470000
C      -46.12420000     -35.35740000     -72.56890000
C      -46.75620000     -36.51550000     -72.22570000
S      -49.52040000     -33.41660000     -72.72440000
S      -48.48140000     -36.34420000     -72.04270000
H      -46.37080000     -37.56520000     -72.31460000
