40
Properties=species:S:1:pos:R:3 #=T CELL(abcABC):=T 1.889726e+02=T 90.00000=T Traj:=T positionsangstrom=T Step:=T 0=T Bead:=T pbc="F F F"
C      -46.80740000     -31.60620000     -70.80960000
C      -45.70960000     -30.79160000     -71.04630000
C      -45.12500000     -30.80500000     -72.27430000
C      -45.73080000     -31.44670000     -73.36660000
C      -46.98510000     -32.05790000     -73.19630000
C      -47.49440000     -32.21280000     -71.88720000
H      -47.19070000     -31.81720000     -69.79540000
H      -44.14920000     -30.22620000     -72.46130000
H      -47.34190000     -32.79860000     -73.95010000
H      -48.25250000     -32.99140000     -71.79570000
C      -44.89070000     -31.69180000     -74.59020000
H      -44.04000000     -31.03390000     -74.54780000
H      -45.49290000     -31.50720000     -75.47850000
C      -45.15910000     -29.99360000     -69.92760000
H      -44.48590000     -29.18890000     -70.22860000
H      -46.00620000     -29.59220000     -69.33160000
S      -44.22250000     -33.36370000     -74.73230000
S      -44.35640000     -31.06160000     -68.61350000
C      -43.11670000     -33.50570000     -73.27920000
H      -42.05550000     -33.27620000     -73.39980000
H      -43.37040000     -32.66790000     -72.63750000
C      -43.28080000     -32.28590000     -69.53180000
H      -42.24450000     -32.02790000     -69.42780000
H      -43.43350000     -32.11380000     -70.57970000
C      -43.45740000     -33.71950000     -69.03460000
H      -42.53910000     -34.29000000     -69.20840000
H      -43.36530000     -33.60390000     -67.94690000
C      -43.12510000     -34.88270000     -72.46870000
H      -42.37790000     -34.90800000     -71.63900000
H      -42.70800000     -35.67330000     -73.03170000
C      -44.48490000     -35.25770000     -71.97510000
C      -45.41490000     -35.86580000     -72.74990000
C      -45.09050000     -34.95040000     -70.61870000
H      -45.21760000     -36.21430000     -73.73370000
C      -46.41910000     -35.38570000     -70.59970000
C      -44.76150000     -34.38670000     -69.32180000
C      -45.78770000     -34.45400000     -68.42550000
S      -46.95860000     -36.28880000     -72.01580000
S      -47.18830000     -35.30340000     -69.08690000
H      -45.65750000     -34.06790000     -67.44990000
