40
Properties=species:S:1:pos:R:3 #=T CELL(abcABC):=T 1.889726e+02=T 90.00000=T Traj:=T positionsangstrom=T Step:=T 0=T Bead:=T pbc="F F F"
C      -47.62990000     -32.64670000     -69.54790000
C      -48.19540000     -33.63780000     -70.37580000
C      -47.73820000     -34.91930000     -70.15390000
C      -46.81970000     -35.26840000     -69.19800000
C      -46.30080000     -34.25990000     -68.33050000
C      -46.75030000     -32.96610000     -68.50820000
H      -47.93840000     -31.60200000     -69.64070000
H      -48.02990000     -35.73530000     -70.75280000
H      -45.53350000     -34.38360000     -67.58870000
H      -46.45030000     -32.08600000     -67.97940000
C      -46.44630000     -36.66660000     -69.07780000
H      -47.28190000     -37.34030000     -69.12670000
H      -45.97840000     -36.85890000     -68.14270000
C      -49.22760000     -33.43270000     -71.43470000
H      -50.03540000     -34.22690000     -71.33730000
H      -49.63930000     -32.43810000     -71.47780000
S      -45.17750000     -37.21720000     -70.39750000
S      -48.53110000     -33.61990000     -73.12320000
C      -43.95610000     -35.90680000     -70.38710000
H      -43.90920000     -35.53420000     -69.33100000
H      -42.94610000     -36.40010000     -70.44380000
C      -47.09360000     -32.39830000     -72.97930000
H      -46.96310000     -32.35750000     -71.90160000
H      -47.52240000     -31.47560000     -73.36980000
C      -45.86050000     -32.75260000     -73.83510000
H      -45.76280000     -33.88920000     -73.84320000
H      -45.86040000     -32.47220000     -74.83540000
C      -44.18680000     -34.77970000     -71.44730000
H      -45.26280000     -34.45890000     -71.33870000
H      -44.05480000     -35.26760000     -72.42240000
C      -43.35700000     -33.48520000     -71.36770000
C      -42.46110000     -33.14880000     -70.34870000
C      -43.64770000     -32.39480000     -72.23520000
H      -42.14420000     -33.76270000     -69.52470000
C      -42.68630000     -31.36140000     -72.04760000
C      -44.65530000     -32.07370000     -73.25900000
C      -44.38600000     -30.88510000     -73.82880000
S      -41.80550000     -31.58940000     -70.60610000
S      -43.05550000     -29.99860000     -73.12430000
H      -44.85900000     -30.43850000     -74.74820000
