40
Properties=species:S:1:pos:R:3 #=T CELL(abcABC):=T 1.889726e+02=T 90.00000=T Traj:=T positionsangstrom=T Step:=T 0=T Bead:=T pbc="F F F"
C      -43.30370000     -33.45850000     -67.73760000
C      -42.65370000     -33.31200000     -68.98120000
C      -42.66570000     -32.09280000     -69.66940000
C      -43.49430000     -31.04960000     -69.20400000
C      -44.15110000     -31.18720000     -67.98820000
C      -44.01090000     -32.38620000     -67.24740000
H      -43.33070000     -34.35940000     -67.16450000
H      -42.09240000     -31.89730000     -70.55290000
H      -44.79960000     -30.39850000     -67.75190000
H      -44.63820000     -32.53370000     -66.40060000
C      -43.83070000     -29.92470000     -70.09690000
H      -43.25980000     -28.96730000     -70.07640000
H      -44.76540000     -29.49560000     -69.78240000
C      -41.77660000     -34.38490000     -69.65440000
H      -40.77580000     -33.93310000     -69.81200000
H      -41.56670000     -35.29640000     -69.01630000
S      -44.04320000     -30.37750000     -71.91910000
S      -42.17170000     -34.84560000     -71.44100000
C      -45.27470000     -31.75090000     -71.82580000
H      -44.87110000     -32.65910000     -71.33810000
H      -46.16460000     -31.34330000     -71.30970000
C      -43.98070000     -35.26570000     -71.30140000
H      -44.38800000     -34.59460000     -70.53270000
H      -44.19390000     -36.26410000     -70.91970000
C      -44.59940000     -35.20970000     -72.67730000
H      -44.28020000     -34.31310000     -73.22370000
H      -44.16430000     -36.06240000     -73.22070000
C      -45.69040000     -31.98110000     -73.25900000
H      -44.99330000     -32.33300000     -73.99420000
H      -45.89910000     -31.03620000     -73.71580000
C      -47.00710000     -32.82140000     -73.29510000
C      -48.30630000     -32.30730000     -73.27660000
C      -47.04970000     -34.21250000     -72.83600000
H      -48.48700000     -31.22550000     -73.44880000
C      -48.37040000     -34.65360000     -72.57610000
C      -46.07150000     -35.29130000     -72.62630000
C      -46.66770000     -36.45050000     -72.21670000
S      -49.56240000     -33.38720000     -72.68840000
S      -48.45580000     -36.29980000     -72.02400000
H      -46.21170000     -37.44150000     -71.97440000
