40
Properties=species:S:1:pos:R:3 #=T CELL(abcABC):=T 1.889726e+02=T 90.00000=T Traj:=T positionsangstrom=T Step:=T 0=T Bead:=T pbc="F F F"
C      -43.02920000     -33.59070000     -67.86410000
C      -42.48930000     -33.44420000     -69.11820000
C      -42.69320000     -32.29750000     -69.87810000
C      -43.50990000     -31.26690000     -69.30890000
C      -44.05260000     -31.39700000     -67.99500000
C      -43.81370000     -32.58770000     -67.26910000
H      -42.84280000     -34.48420000     -67.24930000
H      -42.12800000     -32.19910000     -70.79900000
H      -44.66260000     -30.54090000     -67.58790000
H      -44.33550000     -32.60820000     -66.28840000
C      -43.57080000     -29.91520000     -70.08070000
H      -42.59390000     -29.45810000     -70.14190000
H      -44.24790000     -29.18900000     -69.60460000
C      -41.64970000     -34.52360000     -69.61720000
H      -40.56060000     -34.25820000     -69.54910000
H      -41.82760000     -35.37230000     -69.00260000
S      -43.94670000     -30.21220000     -71.86150000
S      -42.05880000     -34.97250000     -71.37340000
C      -45.52690000     -31.19030000     -71.68850000
H      -45.33830000     -32.00870000     -70.99890000
H      -46.32670000     -30.56220000     -71.17990000
C      -43.89750000     -35.16510000     -71.28300000
H      -44.32700000     -34.49400000     -70.53630000
H      -44.10870000     -36.18300000     -70.98770000
C      -44.65010000     -34.95290000     -72.59110000
H      -44.39030000     -33.92410000     -72.90480000
H      -44.37100000     -35.65720000     -73.35120000
C      -45.99660000     -31.65740000     -73.07010000
H      -45.23960000     -32.16720000     -73.72180000
H      -46.45920000     -30.69230000     -73.50850000
C      -47.16890000     -32.70150000     -72.97000000
C      -48.46080000     -32.26950000     -73.22650000
C      -47.16300000     -34.15030000     -72.60470000
H      -48.72820000     -31.34820000     -73.72760000
C      -48.43810000     -34.67480000     -72.61030000
C      -46.16800000     -35.21240000     -72.36430000
C      -46.73500000     -36.41470000     -72.09600000
S      -49.71710000     -33.54930000     -73.05570000
S      -48.47860000     -36.35320000     -72.13170000
H      -46.11120000     -37.28600000     -71.89640000
