40
Properties=species:S:1:pos:R:3 #=T CELL(abcABC):=T 1.889726e+02=T 90.00000=T Traj:=T positionsangstrom=T Step:=T 0=T Bead:=T pbc="F F F"
C      -43.05560000     -33.54230000     -67.71130000
C      -42.52000000     -33.40880000     -68.97870000
C      -42.60000000     -32.22140000     -69.73570000
C      -43.44470000     -31.19980000     -69.30720000
C      -44.09680000     -31.34680000     -68.01440000
C      -43.88520000     -32.48800000     -67.26260000
H      -42.92290000     -34.47420000     -67.12750000
H      -42.29220000     -32.03220000     -70.71540000
H      -44.70520000     -30.52690000     -67.59210000
H      -44.32050000     -32.51260000     -66.25120000
C      -43.69720000     -29.97410000     -70.13860000
H      -42.77030000     -29.37170000     -70.22070000
H      -44.51080000     -29.41660000     -69.68360000
C      -41.75070000     -34.53270000     -69.62410000
H      -40.67080000     -34.48260000     -69.53800000
H      -42.07720000     -35.47310000     -69.17950000
S      -44.05220000     -30.35200000     -71.86260000
S      -42.13900000     -34.66810000     -71.42300000
C      -45.47550000     -31.51480000     -71.83530000
H      -45.11540000     -32.36320000     -71.26440000
H      -46.34760000     -31.15640000     -71.31190000
C      -43.87150000     -35.29800000     -71.34370000
H      -44.40460000     -34.69650000     -70.58190000
H      -43.81950000     -36.35120000     -71.02850000
C      -44.61320000     -35.08560000     -72.64580000
H      -44.46590000     -34.06560000     -73.01910000
H      -44.21890000     -35.78580000     -73.40540000
C      -45.84290000     -31.90920000     -73.26840000
H      -44.96940000     -32.49260000     -73.58580000
H      -46.01990000     -30.95580000     -73.85640000
C      -47.07780000     -32.80960000     -73.15720000
C      -48.33350000     -32.26450000     -73.20400000
C      -47.12350000     -34.18100000     -72.73600000
H      -48.58400000     -31.23440000     -73.49360000
C      -48.42030000     -34.62370000     -72.54390000
C      -46.13190000     -35.22800000     -72.50100000
C      -46.71600000     -36.39920000     -72.13690000
S      -49.69900000     -33.42860000     -72.89770000
S      -48.44990000     -36.33890000     -72.03520000
H      -46.22290000     -37.23930000     -71.60030000
