40
Properties=species:S:1:pos:R:3 #=T CELL(abcABC):=T 1.889726e+02=T 90.00000=T Traj:=T positionsangstrom=T Step:=T 0=T Bead:=T pbc="F F F"
C      -43.37310000     -33.68120000     -68.33970000
C      -42.60790000     -33.70750000     -69.48550000
C      -42.43470000     -32.44810000     -70.18910000
C      -43.15560000     -31.31870000     -69.77240000
C      -44.01730000     -31.35940000     -68.66760000
C      -44.10810000     -32.56040000     -67.94900000
H      -43.38040000     -34.56800000     -67.78640000
H      -41.98660000     -32.41750000     -71.16950000
H      -44.56640000     -30.50220000     -68.22600000
H      -44.75440000     -32.50650000     -67.07160000
C      -42.90260000     -29.98610000     -70.50370000
H      -41.87250000     -29.95910000     -70.82200000
H      -43.04580000     -29.14420000     -69.71340000
C      -41.90190000     -35.08140000     -69.83770000
H      -40.82510000     -35.13020000     -69.70670000
H      -42.39980000     -35.89810000     -69.33510000
S      -44.26820000     -29.75540000     -71.82280000
S      -41.97580000     -35.56600000     -71.59870000
C      -45.35540000     -31.17240000     -71.53300000
H      -44.92060000     -32.04120000     -70.97410000
H      -46.21900000     -30.87930000     -70.89840000
C      -43.74840000     -35.85710000     -72.05790000
H      -44.02220000     -36.80560000     -71.52690000
H      -43.81890000     -36.15700000     -73.12760000
C      -44.71370000     -34.63140000     -71.64900000
H      -44.54800000     -34.32350000     -70.61750000
H      -44.40560000     -33.71520000     -72.22470000
C      -45.92970000     -31.67330000     -72.86760000
H      -45.15230000     -32.16790000     -73.47370000
H      -46.31220000     -30.77850000     -73.40100000
C      -47.11570000     -32.63810000     -72.82250000
C      -48.35710000     -32.14330000     -72.98170000
C      -47.14810000     -33.99070000     -72.32320000
H      -48.58900000     -31.09180000     -73.07120000
C      -48.46800000     -34.49010000     -72.36420000
C      -46.17980000     -34.97260000     -71.85550000
C      -46.82050000     -36.16140000     -71.54420000
S      -49.70660000     -33.32220000     -72.67910000
S      -48.54930000     -36.18260000     -71.86410000
H      -46.32750000     -37.15200000     -71.24680000
