40
Properties=species:S:1:pos:R:3 #=T CELL(abcABC):=T 1.889726e+02=T 90.00000=T Traj:=T positionsangstrom=T Step:=T 0=T Bead:=T pbc="F F F"
C      -43.09680000     -33.69140000     -68.10220000
C      -42.25270000     -33.45250000     -69.21460000
C      -42.40520000     -32.25300000     -69.95720000
C      -43.25820000     -31.22530000     -69.50580000
C      -44.06700000     -31.48890000     -68.39500000
C      -43.99060000     -32.71230000     -67.75580000
H      -43.06710000     -34.65860000     -67.54690000
H      -41.76960000     -32.06050000     -70.86530000
H      -44.66770000     -30.68360000     -68.06460000
H      -44.58570000     -32.92760000     -66.88070000
C      -43.46620000     -29.90420000     -70.13040000
H      -42.49240000     -29.40840000     -70.20100000
H      -44.10470000     -29.32940000     -69.42860000
C      -41.26430000     -34.49420000     -69.65760000
H      -40.40900000     -34.16480000     -70.16510000
H      -41.13100000     -35.31770000     -68.98460000
S      -44.19320000     -30.10420000     -71.76270000
S      -42.08360000     -35.30500000     -71.17930000
C      -45.70320000     -31.23430000     -71.62820000
H      -45.38470000     -32.14080000     -71.07550000
H      -46.55220000     -30.75920000     -71.05980000
C      -43.91960000     -35.46440000     -70.94780000
H      -44.29980000     -35.19470000     -69.98760000
H      -44.11500000     -36.53100000     -71.11910000
C      -44.68420000     -34.65660000     -72.04190000
H      -44.56670000     -33.65620000     -71.69280000
H      -44.07700000     -34.67720000     -72.95520000
C      -46.16590000     -31.63210000     -73.02120000
H      -45.24750000     -31.98410000     -73.58530000
H      -46.55560000     -30.70790000     -73.53060000
C      -47.24830000     -32.63830000     -73.03200000
C      -48.56520000     -32.23120000     -73.28690000
C      -47.15400000     -34.04620000     -72.66790000
H      -48.78080000     -31.17930000     -73.15920000
C      -48.44080000     -34.69020000     -72.73560000
C      -46.15270000     -34.98750000     -72.25690000
C      -46.66950000     -36.27210000     -72.10040000
S      -49.74210000     -33.49640000     -72.90010000
S      -48.38920000     -36.30380000     -72.30710000
H      -46.27460000     -37.18100000     -71.86330000
