40
Properties=species:S:1:pos:R:3 #=T CELL(abcABC):=T 1.889726e+02=T 90.00000=T Traj:=T positionsangstrom=T Step:=T 0=T Bead:=T pbc="F F F"
C      -47.76740000     -32.65450000     -69.61580000
C      -48.35580000     -33.70080000     -70.33730000
C      -47.84650000     -34.97080000     -70.19660000
C      -46.82840000     -35.18160000     -69.28190000
C      -46.25150000     -34.12540000     -68.59050000
C      -46.68710000     -32.85890000     -68.79100000
H      -47.96000000     -31.55880000     -69.75400000
H      -48.32270000     -35.77790000     -70.73420000
H      -45.54660000     -34.42930000     -67.78160000
H      -46.30450000     -32.03880000     -68.22210000
C      -46.25660000     -36.58330000     -68.94010000
H      -47.06730000     -37.37850000     -68.79840000
H      -45.61700000     -36.52670000     -68.04200000
C      -49.38390000     -33.39140000     -71.40020000
H      -50.05570000     -34.27690000     -71.48070000
H      -49.94060000     -32.47630000     -71.13900000
S      -45.12940000     -37.20780000     -70.28220000
S      -48.52460000     -33.46770000     -73.10340000
C      -43.90150000     -35.75130000     -70.27400000
H      -44.04720000     -35.14070000     -69.41060000
H      -42.88310000     -36.07160000     -70.37570000
C      -46.96100000     -32.53200000     -72.85720000
H      -46.61360000     -32.67760000     -71.84430000
H      -47.13290000     -31.43590000     -72.78760000
C      -45.75690000     -32.93560000     -73.72280000
H      -45.40130000     -33.97550000     -73.58300000
H      -46.07880000     -32.79210000     -74.77770000
C      -44.27850000     -34.84530000     -71.47210000
H      -45.32310000     -34.64460000     -71.59250000
H      -43.95130000     -35.36560000     -72.39830000
C      -43.55780000     -33.51190000     -71.38910000
C      -42.56220000     -33.33130000     -70.38820000
C      -43.79940000     -32.34150000     -72.19520000
H      -42.33160000     -33.97850000     -69.60270000
C      -42.84300000     -31.36150000     -71.94060000
C      -44.66450000     -32.02270000     -73.30730000
C      -44.30040000     -30.87740000     -73.87420000
S      -41.79740000     -31.72130000     -70.65550000
S      -42.91640000     -30.02150000     -73.15310000
H      -44.82660000     -30.47930000     -74.76700000
