40
Properties=species:S:1:pos:R:3 #=T CELL(abcABC):=T 1.889726e+02=T 90.00000=T Traj:=T positionsangstrom=T Step:=T 0=T Bead:=T pbc="F F F"
C      -46.58240000     -31.12900000     -70.88420000
C      -45.22000000     -30.69820000     -71.07120000
C      -44.60580000     -30.93870000     -72.28680000
C      -45.25770000     -31.51180000     -73.34460000
C      -46.63670000     -31.81730000     -73.17500000
C      -47.29140000     -31.60100000     -71.98820000
H      -46.98600000     -31.21030000     -69.86970000
H      -43.62310000     -30.64200000     -72.49880000
H      -47.28510000     -32.11600000     -74.06380000
H      -48.30390000     -31.67370000     -71.83680000
C      -44.62260000     -31.92070000     -74.65430000
H      -43.68520000     -31.34280000     -74.89230000
H      -45.24970000     -31.59350000     -75.45840000
C      -44.45720000     -30.02390000     -69.94860000
H      -43.57910000     -29.48090000     -70.33940000
H      -45.09920000     -29.22440000     -69.53690000
S      -44.30460000     -33.76260000     -74.66320000
S      -43.94760000     -31.11110000     -68.51420000
C      -43.13840000     -34.17460000     -73.25280000
H      -42.18410000     -34.29650000     -73.67850000
H      -43.10550000     -33.27850000     -72.60830000
C      -43.06010000     -32.40310000     -69.60200000
H      -41.96900000     -32.30430000     -69.18150000
H      -43.24420000     -32.12950000     -70.64980000
C      -43.41480000     -33.95490000     -69.37280000
H      -42.76430000     -34.40240000     -70.11190000
H      -43.07580000     -34.38730000     -68.46010000
C      -43.59740000     -35.45350000     -72.52730000
H      -42.83650000     -35.73720000     -71.82260000
H      -43.57250000     -36.24510000     -73.25220000
C      -45.00420000     -35.44070000     -71.95850000
C      -45.97840000     -36.06480000     -72.66360000
C      -45.45660000     -34.95410000     -70.65920000
H      -45.97150000     -36.63860000     -73.62200000
C      -46.78460000     -35.27680000     -70.51820000
C      -44.86020000     -34.32040000     -69.54620000
C      -45.77990000     -34.21610000     -68.50430000
S      -47.48800000     -36.19740000     -71.81900000
S      -47.45320000     -34.64760000     -69.04250000
H      -45.53680000     -33.65720000     -67.60270000
