40
Properties=species:S:1:pos:R:3 #=T CELL(abcABC):=T 1.889726e+02=T 90.00000=T Traj:=T positionsangstrom=T Step:=T 0=T Bead:=T pbc="F F F"
C      -46.95580000     -36.42180000     -72.64490000
C      -47.75270000     -35.32090000     -72.38570000
C      -47.65100000     -34.19520000     -73.21580000
C      -46.70320000     -34.09640000     -74.23140000
C      -45.74540000     -35.11260000     -74.34020000
C      -45.88110000     -36.24080000     -73.52130000
H      -46.88660000     -37.23920000     -72.03490000
H      -48.26650000     -33.26530000     -72.88270000
H      -44.98530000     -34.93970000     -75.04670000
H      -45.18470000     -37.10580000     -73.59950000
C      -46.67050000     -32.89590000     -75.14580000
H      -47.54490000     -32.89720000     -75.82200000
H      -45.87320000     -33.00020000     -75.88600000
C      -48.76140000     -35.38970000     -71.28480000
H      -49.22240000     -34.39350000     -71.45500000
H      -49.50040000     -36.17970000     -71.42980000
S      -46.75660000     -31.24640000     -74.33400000
S      -48.03650000     -35.64290000     -69.55150000
C      -45.18240000     -31.17180000     -73.37650000
H      -44.38640000     -31.59680000     -73.86430000
H      -44.94190000     -30.12040000     -73.24090000
C      -46.56820000     -34.58740000     -69.15880000
H      -46.22380000     -34.66490000     -68.14340000
H      -46.98380000     -33.52520000     -69.29900000
C      -45.33760000     -34.81880000     -70.03100000
H      -45.01750000     -35.89530000     -69.88900000
H      -45.58710000     -34.71040000     -71.06410000
C      -45.34300000     -31.87360000     -72.00130000
H      -45.43660000     -32.94760000     -72.20720000
H      -46.24090000     -31.60820000     -71.47520000
C      -44.16700000     -31.68760000     -71.12630000
C      -43.37770000     -30.56360000     -71.11150000
C      -43.73220000     -32.66580000     -70.13120000
H      -43.47010000     -29.63060000     -71.75980000
C      -42.67320000     -32.21380000     -69.37290000
C      -44.19250000     -33.95340000     -69.65850000
C      -43.48910000     -34.41850000     -68.53290000
S      -42.03740000     -30.61200000     -69.90550000
S      -42.21320000     -33.24040000     -68.02070000
H      -43.81410000     -35.22640000     -67.93250000
