40
Properties=species:S:1:pos:R:3 #=T CELL(abcABC):=T 1.889726e+02=T 90.00000=T Traj:=T positionsangstrom=T Step:=T 0=T Bead:=T pbc="F F F"
C      -47.07380000     -36.59130000     -72.34870000
C      -47.88270000     -35.43670000     -72.25710000
C      -47.66810000     -34.43390000     -73.20990000
C      -46.60590000     -34.39480000     -74.11770000
C      -45.85960000     -35.58740000     -74.20860000
C      -46.08640000     -36.65070000     -73.32840000
H      -47.12440000     -37.44840000     -71.60850000
H      -48.28830000     -33.53640000     -73.16890000
H      -45.03370000     -35.59320000     -74.93320000
H      -45.35980000     -37.48210000     -73.24130000
C      -46.18140000     -33.21060000     -74.97020000
H      -46.41700000     -33.31430000     -76.01300000
H      -45.03670000     -33.16870000     -74.98140000
C      -48.83550000     -35.14280000     -71.13090000
H      -49.44400000     -34.21050000     -71.19860000
H      -49.61570000     -35.85330000     -70.98640000
S      -46.83640000     -31.59870000     -74.44500000
S      -48.02510000     -35.34110000     -69.45260000
C      -45.56260000     -31.10850000     -73.24230000
H      -44.69250000     -30.73620000     -73.72130000
H      -45.97670000     -30.26150000     -72.70970000
C      -46.64160000     -34.07560000     -69.43700000
H      -46.54090000     -33.97110000     -68.40520000
H      -46.95960000     -33.16600000     -69.97030000
C      -45.33620000     -34.68300000     -69.97190000
H      -45.25840000     -35.72440000     -69.73370000
H      -45.44290000     -34.66190000     -71.06730000
C      -45.26110000     -32.07550000     -72.14800000
H      -44.96880000     -33.08690000     -72.47500000
H      -46.11890000     -32.14780000     -71.52790000
C      -44.10980000     -31.62570000     -71.24180000
C      -43.25820000     -30.60310000     -71.36510000
C      -43.75340000     -32.47470000     -70.08990000
H      -43.21880000     -29.88840000     -72.11900000
C      -42.62660000     -32.02800000     -69.42540000
C      -44.19770000     -33.78730000     -69.52470000
C      -43.39790000     -34.17470000     -68.44580000
S      -41.91960000     -30.60910000     -70.21800000
S      -42.22400000     -33.00790000     -68.03930000
H      -43.45260000     -35.13670000     -67.87740000
