40
Properties=species:S:1:pos:R:3 #=T CELL(abcABC):=T 1.889726e+02=T 90.00000=T Traj:=T positionsangstrom=T Step:=T 0=T Bead:=T pbc="F F F"
C      -46.80000000     -36.61730000     -72.20210000
C      -47.72210000     -35.56460000     -72.16890000
C      -47.79000000     -34.65580000     -73.26810000
C      -46.80540000     -34.65090000     -74.26650000
C      -45.77380000     -35.61560000     -74.20820000
C      -45.76860000     -36.57910000     -73.18670000
H      -46.59100000     -37.29350000     -71.38720000
H      -48.56020000     -33.87430000     -73.34560000
H      -45.00070000     -35.57630000     -74.99340000
H      -44.96090000     -37.34110000     -73.09150000
C      -46.85810000     -33.57150000     -75.33200000
H      -47.82220000     -33.76010000     -75.88740000
H      -46.06920000     -33.62280000     -76.12540000
C      -48.64960000     -35.40320000     -70.96700000
H      -49.30790000     -34.58830000     -71.07490000
H      -49.42050000     -36.24960000     -70.88000000
S      -46.90470000     -31.85780000     -74.66140000
S      -47.93090000     -35.37610000     -69.22370000
C      -45.19300000     -31.74370000     -73.69270000
H      -44.53770000     -32.45120000     -74.19320000
H      -44.79390000     -30.74780000     -73.81400000
C      -46.71020000     -34.04200000     -69.08380000
H      -46.52880000     -34.00610000     -67.99320000
H      -46.93130000     -33.10960000     -69.54540000
C      -45.31870000     -34.48190000     -69.71980000
H      -45.15750000     -35.58770000     -69.52390000
H      -45.33860000     -34.36520000     -70.80130000
C      -45.38590000     -32.03070000     -72.17200000
H      -45.88150000     -33.00270000     -71.91650000
H      -46.10240000     -31.23860000     -71.77590000
C      -44.02900000     -31.87350000     -71.39500000
C      -43.22870000     -30.78740000     -71.68740000
C      -43.74100000     -32.42520000     -70.06170000
H      -43.29840000     -30.14720000     -72.49510000
C      -42.66530000     -31.75470000     -69.49360000
C      -44.14700000     -33.61420000     -69.29930000
C      -43.35550000     -33.80940000     -68.15950000
S      -42.13040000     -30.33350000     -70.35670000
S      -42.16850000     -32.49310000     -67.93340000
H      -43.25750000     -34.67090000     -67.42710000
