40
Properties=species:S:1:pos:R:3 #=T CELL(abcABC):=T 1.889726e+02=T 90.00000=T Traj:=T positionsangstrom=T Step:=T 0=T Bead:=T pbc="F F F"
C      -46.06410000     -31.04960000     -71.49140000
C      -44.67920000     -30.94200000     -71.57910000
C      -43.96060000     -31.65150000     -72.58850000
C      -44.68660000     -32.44130000     -73.50710000
C      -46.04620000     -32.62860000     -73.29640000
C      -46.78750000     -31.89360000     -72.37750000
H      -46.63210000     -30.44130000     -70.77440000
H      -42.88620000     -31.57640000     -72.67370000
H      -46.54070000     -33.43480000     -73.88810000
H      -47.82560000     -32.20870000     -72.13400000
C      -44.02710000     -33.24070000     -74.61630000
H      -43.02880000     -32.96410000     -74.92150000
H      -44.61660000     -33.05610000     -75.55780000
C      -43.80330000     -30.12090000     -70.74050000
H      -42.86860000     -29.81130000     -71.33920000
H      -44.29690000     -29.14580000     -70.41340000
S      -44.17770000     -35.06190000     -74.39330000
S      -43.32690000     -30.93940000     -69.14050000
C      -43.25480000     -35.36780000     -72.75690000
H      -42.30150000     -35.87080000     -72.94430000
H      -43.06500000     -34.39550000     -72.37100000
C      -42.94920000     -32.69250000     -69.63990000
H      -41.87990000     -32.90490000     -69.47420000
H      -43.17450000     -32.80510000     -70.64530000
C      -43.79850000     -33.68500000     -68.88160000
H      -43.32230000     -34.69150000     -69.13230000
H      -43.73560000     -33.47860000     -67.79740000
C      -44.15370000     -36.07810000     -71.73030000
H      -43.62050000     -36.29150000     -70.82660000
H      -44.43150000     -37.08650000     -72.18260000
C      -45.51300000     -35.44740000     -71.41200000
C      -46.60810000     -35.93660000     -72.12930000
C      -45.87800000     -34.49780000     -70.38130000
H      -46.42180000     -36.55340000     -72.99170000
C      -47.23960000     -34.30930000     -70.37630000
C      -45.27890000     -33.65110000     -69.31730000
C      -46.23250000     -33.00620000     -68.57830000
S      -48.13840000     -35.19770000     -71.60380000
S      -47.89370000     -33.21710000     -69.16550000
H      -45.88470000     -32.42880000     -67.66270000
