40
Properties=species:S:1:pos:R:3 #=T CELL(abcABC):=T 1.889726e+02=T 90.00000=T Traj:=T positionsangstrom=T Step:=T 0=T Bead:=T pbc="F F F"
C      -46.85720000     -36.73020000     -72.24130000
C      -47.75150000     -35.62950000     -72.18340000
C      -47.59720000     -34.52260000     -73.02440000
C      -46.65550000     -34.51640000     -74.06190000
C      -45.86570000     -35.63890000     -74.18890000
C      -45.97020000     -36.75700000     -73.34520000
H      -47.05790000     -37.63530000     -71.59580000
H      -48.24730000     -33.66430000     -72.77660000
H      -45.09540000     -35.70110000     -74.95160000
H      -45.22930000     -37.53160000     -73.39810000
C      -46.57780000     -33.45290000     -75.11420000
H      -47.40520000     -33.70190000     -75.86660000
H      -45.62230000     -33.71370000     -75.67270000
C      -48.73660000     -35.50810000     -71.08840000
H      -49.50290000     -34.64970000     -71.19130000
H      -49.37810000     -36.38100000     -70.98040000
S      -46.75870000     -31.67440000     -74.61510000
S      -47.96250000     -35.39260000     -69.37750000
C      -45.17770000     -31.51210000     -73.57470000
H      -44.37930000     -32.19470000     -73.92180000
H      -44.83780000     -30.49890000     -73.84410000
C      -46.71960000     -34.04140000     -69.33690000
H      -46.68240000     -33.61040000     -68.33600000
H      -47.17180000     -33.32440000     -70.06590000
C      -45.33630000     -34.54190000     -69.85770000
H      -45.15620000     -35.57140000     -69.51720000
H      -45.38540000     -34.66990000     -70.96580000
C      -45.34750000     -31.90270000     -72.09030000
H      -45.67590000     -32.96850000     -72.14940000
H      -46.11370000     -31.35650000     -71.51760000
C      -44.06980000     -31.73700000     -71.32480000
C      -43.29840000     -30.64970000     -71.54820000
C      -43.78220000     -32.43690000     -70.07620000
H      -43.18960000     -30.02940000     -72.47670000
C      -42.71080000     -31.81160000     -69.44070000
C      -44.20600000     -33.61200000     -69.39930000
C      -43.47050000     -33.89550000     -68.28170000
S      -42.12480000     -30.40050000     -70.21210000
S      -42.21190000     -32.70870000     -68.02450000
H      -43.61880000     -34.61230000     -67.54110000
