40
Properties=species:S:1:pos:R:3 #=T CELL(abcABC):=T 1.889726e+02=T 90.00000=T Traj:=T positionsangstrom=T Step:=T 0=T Bead:=T pbc="F F F"
C      -48.70820000     -32.00360000     -71.34820000
C      -47.63100000     -32.72110000     -70.75740000
C      -46.95970000     -33.68130000     -71.48830000
C      -47.15720000     -33.84890000     -72.85500000
C      -48.30440000     -33.15470000     -73.41260000
C      -49.05110000     -32.22400000     -72.70020000
H      -49.39270000     -31.29740000     -70.81150000
H      -46.04380000     -34.11910000     -70.96730000
H      -48.62240000     -33.50550000     -74.49050000
H      -49.98280000     -31.74080000     -73.13490000
C      -46.49970000     -34.90970000     -73.73010000
H      -47.20110000     -35.50500000     -74.36840000
H      -46.02180000     -35.65400000     -73.14480000
C      -47.32030000     -32.46990000     -69.33700000
H      -48.16890000     -32.60300000     -68.68000000
H      -46.45350000     -33.12250000     -69.07510000
S      -45.21330000     -34.06930000     -74.80410000
S      -46.68300000     -30.77670000     -69.17140000
C      -44.77360000     -32.58890000     -73.83850000
H      -44.80890000     -31.64100000     -74.53140000
H      -45.56370000     -32.42170000     -73.09080000
C      -45.17520000     -30.60500000     -70.33160000
H      -45.23480000     -29.50500000     -70.63440000
H      -45.47880000     -31.16470000     -71.26590000
C      -43.83170000     -31.17030000     -69.80760000
H      -43.00060000     -30.77410000     -70.44160000
H      -43.61570000     -30.71370000     -68.81870000
C      -43.37440000     -32.63110000     -73.18120000
H      -43.19540000     -31.66090000     -72.70630000
H      -42.56000000     -32.79240000     -73.89920000
C      -43.27210000     -33.73810000     -72.14020000
C      -43.04120000     -34.98640000     -72.59560000
C      -43.69070000     -33.67710000     -70.73300000
H      -42.72800000     -35.19740000     -73.58630000
C      -43.78810000     -34.97010000     -70.18580000
C      -43.86220000     -32.70030000     -69.69140000
C      -43.91140000     -33.27100000     -68.45080000
S      -43.27490000     -36.21280000     -71.24270000
S      -44.04140000     -34.99580000     -68.53400000
H      -44.10710000     -32.78610000     -67.49560000
