40
Properties=species:S:1:pos:R:3 #=T CELL(abcABC):=T 1.889726e+02=T 90.00000=T Traj:=T positionsangstrom=T Step:=T 0=T Bead:=T pbc="F F F"
C      -45.56480000     -31.16240000     -72.05340000
C      -44.20750000     -31.15450000     -71.99670000
C      -43.51820000     -32.02950000     -72.85150000
C      -44.14860000     -32.95210000     -73.63370000
C      -45.57480000     -32.96370000     -73.70220000
C      -46.26300000     -32.08500000     -72.87420000
H      -46.19100000     -30.54130000     -71.35630000
H      -42.45650000     -32.01900000     -72.68350000
H      -46.01820000     -33.69740000     -74.37770000
H      -47.32210000     -32.12700000     -72.87360000
C      -43.32370000     -33.97850000     -74.37880000
H      -42.25130000     -33.75300000     -74.45990000
H      -43.68450000     -34.04000000     -75.39270000
C      -43.48690000     -30.28610000     -71.02460000
H      -42.36100000     -30.25040000     -71.19490000
H      -43.96380000     -29.26690000     -71.06370000
S      -43.50450000     -35.74040000     -73.65390000
S      -43.90530000     -30.82900000     -69.22850000
C      -43.22480000     -35.25370000     -71.78670000
H      -42.26190000     -35.73910000     -71.52560000
H      -43.14830000     -34.19310000     -71.85950000
C      -43.42760000     -32.61920000     -69.05280000
H      -42.50770000     -32.72520000     -68.52630000
H      -43.30020000     -33.02260000     -70.07910000
C      -44.47300000     -33.52330000     -68.48230000
H      -44.28290000     -34.57590000     -68.66560000
H      -44.68950000     -33.36550000     -67.38340000
C      -44.28800000     -35.82350000     -70.80600000
H      -43.90020000     -35.74150000     -69.79550000
H      -44.31360000     -36.91770000     -70.86640000
C      -45.66220000     -35.29170000     -71.02270000
C      -46.55870000     -35.83320000     -71.94410000
C      -46.29680000     -34.26660000     -70.28550000
H      -46.27490000     -36.57820000     -72.69510000
C      -47.56200000     -33.87000000     -70.70570000
C      -45.86500000     -33.34070000     -69.26170000
C      -46.81560000     -32.46280000     -68.89410000
S      -48.06700000     -35.02150000     -72.05900000
S      -48.35440000     -32.69270000     -69.75210000
H      -46.57480000     -31.75140000     -68.17660000
