40
Properties=species:S:1:pos:R:3 #=T CELL(abcABC):=T 1.889726e+02=T 90.00000=T Traj:=T positionsangstrom=T Step:=T 0=T Bead:=T pbc="F F F"
C      -43.34590000     -32.16850000     -72.10090000
C      -44.06700000     -32.78660000     -73.13000000
C      -45.33960000     -32.37660000     -73.39270000
C      -46.06750000     -31.49510000     -72.54710000
C      -45.30390000     -30.92340000     -71.46700000
C      -43.93500000     -31.12380000     -71.35740000
H      -42.32410000     -32.39490000     -71.82830000
H      -45.80530000     -32.87380000     -74.21020000
H      -45.84430000     -30.26360000     -70.82670000
H      -43.35020000     -30.81010000     -70.45940000
C      -47.48460000     -31.05190000     -72.89780000
H      -47.38690000     -30.32810000     -73.73000000
H      -47.93290000     -30.54430000     -72.07650000
C      -43.41920000     -33.74050000     -74.13410000
H      -44.14090000     -34.20510000     -74.81550000
H      -42.90250000     -33.10770000     -74.87210000
S      -48.65620000     -32.44220000     -73.36680000
S      -42.29720000     -34.90160000     -73.38580000
C      -48.86320000     -33.43670000     -71.77790000
H      -49.17580000     -32.63490000     -71.06430000
H      -49.74990000     -33.96360000     -72.16920000
C      -43.47400000     -36.11640000     -72.65700000
H      -42.92230000     -36.71890000     -71.90880000
H      -43.77100000     -36.94860000     -73.36950000
C      -44.71850000     -35.48950000     -72.04070000
H      -45.38530000     -34.97830000     -72.72780000
H      -45.44090000     -36.35900000     -71.83400000
C      -47.59170000     -34.34090000     -71.45820000
H      -46.82780000     -34.21980000     -72.22540000
H      -47.78440000     -35.43120000     -71.43080000
C      -46.94360000     -33.82920000     -70.14590000
C      -47.53890000     -33.14470000     -69.12290000
C      -45.54560000     -34.21580000     -69.89800000
H      -48.54080000     -32.75530000     -69.04560000
C      -45.05070000     -33.51660000     -68.77900000
C      -44.53000000     -34.82210000     -70.69110000
C      -43.30580000     -34.74910000     -70.06310000
S      -46.35040000     -32.77880000     -67.81720000
S      -43.35930000     -33.90370000     -68.52820000
H      -42.36660000     -34.82060000     -70.53490000
