40
Properties=species:S:1:pos:R:3 #=T CELL(abcABC):=T 1.889726e+02=T 90.00000=T Traj:=T positionsangstrom=T Step:=T 0=T Bead:=T pbc="F F F"
C      -45.93920000     -30.64200000     -73.64850000
C      -44.63310000     -31.15770000     -73.65170000
C      -43.74120000     -30.72260000     -72.64850000
C      -44.04790000     -29.75370000     -71.64790000
C      -45.33120000     -29.22950000     -71.69660000
C      -46.25770000     -29.68130000     -72.64280000
H      -46.65730000     -31.02060000     -74.33030000
H      -42.69400000     -31.06350000     -72.55510000
H      -45.60710000     -28.49770000     -70.96270000
H      -47.26390000     -29.25430000     -72.66240000
C      -43.22160000     -29.65720000     -70.40900000
H      -43.57110000     -28.83590000     -69.77210000
H      -42.14060000     -29.54250000     -70.65590000
C      -44.05560000     -32.13470000     -74.69360000
H      -43.72030000     -31.66620000     -75.68030000
H      -43.16770000     -32.53230000     -74.31310000
S      -43.33420000     -31.20410000     -69.36970000
S      -45.25630000     -33.46210000     -75.05290000
C      -45.13300000     -31.64910000     -69.16710000
H      -45.35480000     -31.94050000     -68.12680000
H      -45.63130000     -30.74320000     -69.57950000
C      -45.39710000     -34.33770000     -73.40520000
H      -44.78190000     -33.78800000     -72.67010000
H      -44.96850000     -35.39560000     -73.53140000
C      -46.83890000     -34.53010000     -72.89810000
H      -47.30810000     -33.59440000     -72.60970000
H      -47.49140000     -34.92760000     -73.67970000
C      -45.65250000     -32.72540000     -70.12880000
H      -45.21410000     -32.61850000     -71.12700000
H      -46.76410000     -32.57970000     -70.28630000
C      -45.56690000     -34.15660000     -69.67010000
C      -44.99120000     -34.45930000     -68.46800000
C      -46.10960000     -35.26480000     -70.40680000
H      -44.38240000     -33.92860000     -67.81900000
C      -46.11100000     -36.38660000     -69.64850000
C      -46.72860000     -35.51500000     -71.74740000
C      -47.20030000     -36.84140000     -71.84850000
S      -45.32890000     -36.22240000     -68.13270000
S      -46.81230000     -37.82290000     -70.44550000
H      -47.60260000     -37.29330000     -72.73270000
