40
Properties=species:S:1:pos:R:3 #=T CELL(abcABC):=T 1.889726e+02=T 90.00000=T Traj:=T positionsangstrom=T Step:=T 0=T Bead:=T pbc="F F F"
C      -49.02510000     -32.66610000     -72.12410000
C      -47.66200000     -32.74910000     -72.41790000
C      -46.84480000     -33.86470000     -72.07260000
C      -47.37390000     -34.86950000     -71.24380000
C      -48.76360000     -34.83290000     -71.10920000
C      -49.58680000     -33.80130000     -71.51750000
H      -49.57050000     -31.80660000     -72.40770000
H      -45.79730000     -33.93490000     -72.27560000
H      -49.29580000     -35.59090000     -70.51370000
H      -50.62550000     -33.82940000     -71.38180000
C      -46.58310000     -36.07540000     -70.74290000
H      -45.82380000     -36.37420000     -71.52770000
H      -47.27480000     -36.95120000     -70.62880000
C      -47.18560000     -31.58460000     -73.32020000
H      -46.33740000     -31.97510000     -73.93320000
H      -47.97720000     -31.26260000     -74.01990000
S      -46.07920000     -35.79160000     -68.99010000
S      -46.54990000     -30.09990000     -72.36180000
C      -45.68150000     -33.92680000     -68.76600000
H      -46.07550000     -33.37830000     -69.68060000
H      -46.34880000     -33.60740000     -67.97650000
C      -46.01890000     -30.83900000     -70.71930000
H      -46.44270000     -31.80360000     -70.72750000
H      -46.61320000     -30.21000000     -69.97510000
C      -44.50600000     -30.80550000     -70.61230000
H      -43.94510000     -29.85250000     -70.76710000
H      -44.37150000     -30.99570000     -69.52910000
C      -44.20460000     -33.77550000     -68.50500000
H      -43.96000000     -34.51240000     -67.65240000
H      -44.11070000     -32.69520000     -68.13600000
C      -43.43850000     -34.03950000     -69.81460000
C      -42.87280000     -35.23690000     -70.07360000
C      -43.41240000     -33.12980000     -71.00140000
H      -42.96420000     -36.17400000     -69.52040000
C      -42.83950000     -33.79540000     -72.06630000
C      -43.88660000     -31.89300000     -71.43480000
C      -43.59340000     -31.55870000     -72.76170000
S      -42.22760000     -35.43120000     -71.67660000
S      -42.89230000     -32.90260000     -73.61720000
H      -43.95190000     -30.68840000     -73.28620000
