40
Properties=species:S:1:pos:R:3 #=T CELL(abcABC):=T 1.889726e+02=T 90.00000=T Traj:=T positionsangstrom=T Step:=T 0=T Bead:=T pbc="F F F"
C      -49.24740000     -32.96400000     -72.05950000
C      -47.91660000     -32.69070000     -72.39530000
C      -46.95720000     -33.64570000     -71.96440000
C      -47.31760000     -34.79760000     -71.20140000
C      -48.69660000     -35.05920000     -71.01360000
C      -49.63520000     -34.09410000     -71.37990000
H      -50.04580000     -32.25650000     -72.30120000
H      -45.92460000     -33.38540000     -72.03490000
H      -48.96020000     -36.01250000     -70.51440000
H      -50.61470000     -34.22120000     -71.04800000
C      -46.22340000     -35.78680000     -70.78050000
H      -45.31500000     -35.48380000     -71.20880000
H      -46.39540000     -36.80920000     -70.99140000
C      -47.69380000     -31.49280000     -73.12290000
H      -47.23270000     -31.69610000     -74.11060000
H      -48.66620000     -31.09700000     -73.39120000
S      -45.97390000     -35.81750000     -68.86550000
S      -46.77540000     -30.05070000     -72.16400000
C      -45.62050000     -34.01080000     -68.53280000
H      -46.12850000     -33.26680000     -69.14030000
H      -45.98290000     -33.74690000     -67.54420000
C      -45.94180000     -30.78510000     -70.77550000
H      -46.18950000     -31.81350000     -70.54880000
H      -46.30500000     -30.25780000     -69.80490000
C      -44.37600000     -30.78630000     -70.69360000
H      -44.08010000     -29.78410000     -70.89490000
H      -43.93800000     -30.98250000     -69.72600000
C      -44.10990000     -33.75270000     -68.64820000
H      -43.60890000     -34.43640000     -67.93890000
H      -43.92710000     -32.79450000     -68.21440000
C      -43.50720000     -33.99870000     -70.01200000
C      -42.99300000     -35.27920000     -70.27170000
C      -43.48320000     -33.12740000     -71.15430000
H      -42.80420000     -35.95800000     -69.49700000
C      -42.81910000     -33.81580000     -72.20810000
C      -43.74460000     -31.74830000     -71.58730000
C      -43.35900000     -31.55360000     -72.87790000
S      -42.37660000     -35.50780000     -71.87540000
S      -42.62250000     -32.90050000     -73.64910000
H      -43.44780000     -30.66220000     -73.46960000
