40
Properties=species:S:1:pos:R:3 #=T CELL(abcABC):=T 1.889726e+02=T 90.00000=T Traj:=T positionsangstrom=T Step:=T 0=T Bead:=T pbc="F F F"
C      -43.31960000     -31.76010000     -72.01500000
C      -43.98260000     -32.46190000     -73.03010000
C      -45.36150000     -32.26150000     -73.20250000
C      -46.13620000     -31.49200000     -72.30130000
C      -45.42670000     -30.84950000     -71.25870000
C      -44.03920000     -30.95780000     -71.11090000
H      -42.25940000     -31.73670000     -72.03530000
H      -45.88420000     -32.69030000     -73.97580000
H      -46.08480000     -30.22190000     -70.69910000
H      -43.62130000     -30.41570000     -70.23560000
C      -47.56610000     -31.11120000     -72.70040000
H      -47.41870000     -30.30530000     -73.45260000
H      -48.07170000     -30.55560000     -71.87890000
C      -43.28030000     -33.36130000     -74.00680000
H      -43.99580000     -33.78880000     -74.67210000
H      -42.41300000     -32.84120000     -74.47230000
S      -48.55160000     -32.51610000     -73.42380000
S      -42.25030000     -34.82510000     -73.22470000
C      -48.91740000     -33.64480000     -71.96960000
H      -49.33220000     -33.03830000     -71.18060000
H      -49.78730000     -34.24380000     -72.34870000
C      -43.51760000     -36.11730000     -72.85860000
H      -42.93530000     -36.85040000     -72.23740000
H      -43.80170000     -36.67200000     -73.80180000
C      -44.69620000     -35.62850000     -72.10300000
H      -45.26530000     -34.92340000     -72.72980000
H      -45.44680000     -36.49220000     -71.98510000
C      -47.78320000     -34.56490000     -71.50990000
H      -47.10090000     -34.68550000     -72.28100000
H      -48.17040000     -35.56360000     -71.31120000
C      -46.93470000     -33.85900000     -70.36480000
C      -47.49690000     -33.11310000     -69.31730000
C      -45.52950000     -34.15360000     -70.11200000
H      -48.56590000     -32.99690000     -69.01450000
C      -45.04730000     -33.66070000     -68.91410000
C      -44.45150000     -34.98380000     -70.74740000
C      -43.22990000     -34.78060000     -70.08440000
S      -46.33620000     -32.81540000     -68.03350000
S      -43.42800000     -34.08850000     -68.44960000
H      -42.29750000     -35.11890000     -70.39160000
