40
Properties=species:S:1:pos:R:3 #=T CELL(abcABC):=T 1.889726e+02=T 90.00000=T Traj:=T positionsangstrom=T Step:=T 0=T Bead:=T pbc="F F F"
C      -49.06190000     -33.45710000     -71.67860000
C      -47.72840000     -33.33450000     -72.08510000
C      -46.80570000     -34.28330000     -71.53860000
C      -47.23840000     -35.36680000     -70.79580000
C      -48.58720000     -35.39520000     -70.41200000
C      -49.49450000     -34.48210000     -70.86130000
H      -49.74060000     -32.69630000     -72.08940000
H      -45.69140000     -34.15450000     -71.67790000
H      -48.93580000     -36.37290000     -69.96000000
H      -50.59180000     -34.51000000     -70.69010000
C      -46.27990000     -36.47060000     -70.22800000
H      -45.62580000     -36.80030000     -70.96380000
H      -46.91160000     -37.29860000     -69.87890000
C      -47.24430000     -32.13070000     -72.95390000
H      -46.13680000     -32.30900000     -73.28730000
H      -47.85760000     -32.08120000     -73.92920000
S      -45.31760000     -35.97110000     -68.73670000
S      -47.26200000     -30.54280000     -72.04120000
C      -45.30270000     -34.09470000     -68.53880000
H      -46.18540000     -33.74810000     -69.08240000
H      -45.56740000     -34.04180000     -67.47210000
C      -46.17840000     -30.87190000     -70.47370000
H      -46.31660000     -31.87020000     -70.15030000
H      -46.48430000     -30.02870000     -69.85820000
C      -44.68150000     -30.49040000     -70.87910000
H      -44.54690000     -29.48930000     -71.26740000
H      -44.07530000     -30.39370000     -69.92770000
C      -44.11720000     -33.29580000     -68.91130000
H      -43.40480000     -33.44210000     -68.11930000
H      -44.39710000     -32.21550000     -68.91600000
C      -43.58850000     -33.65190000     -70.33120000
C      -43.05430000     -34.88680000     -70.65420000
C      -43.59710000     -32.75540000     -71.51910000
H      -42.89410000     -35.68720000     -69.92220000
C      -42.94080000     -33.33120000     -72.63730000
C      -43.91640000     -31.39020000     -71.82870000
C      -43.71110000     -31.02240000     -73.11890000
S      -42.46570000     -34.97910000     -72.29790000
S      -42.75050000     -32.20930000     -73.99260000
H      -44.05220000     -30.03720000     -73.51920000
