40
Properties=species:S:1:pos:R:3 #=T CELL(abcABC):=T 1.889726e+02=T 90.00000=T Traj:=T positionsangstrom=T Step:=T 0=T Bead:=T pbc="F F F"
C      -49.12810000     -33.07110000     -71.86070000
C      -47.75920000     -32.91970000     -72.09310000
C      -46.89160000     -33.96770000     -71.78890000
C      -47.27000000     -35.04770000     -71.03950000
C      -48.66830000     -35.12100000     -70.62210000
C      -49.59210000     -34.14850000     -71.03060000
H      -49.79630000     -32.26850000     -72.13120000
H      -45.83970000     -33.85370000     -72.00990000
H      -49.07190000     -35.86260000     -69.92850000
H      -50.63240000     -34.20300000     -70.79970000
C      -46.28860000     -36.04080000     -70.59160000
H      -45.39160000     -35.92990000     -71.26380000
H      -46.69420000     -37.03220000     -70.71790000
C      -47.29430000     -31.73510000     -72.89850000
H      -46.31140000     -32.04100000     -73.22390000
H      -47.92510000     -31.54520000     -73.76670000
S      -45.82000000     -35.83510000     -68.76020000
S      -47.21450000     -30.25110000     -71.81850000
C      -45.59340000     -33.99000000     -68.68710000
H      -46.27330000     -33.46260000     -69.29190000
H      -45.87550000     -33.60960000     -67.70170000
C      -45.99900000     -30.85020000     -70.60050000
H      -46.16050000     -31.92100000     -70.37330000
H      -46.14800000     -30.29860000     -69.64380000
C      -44.48260000     -30.66080000     -70.88610000
H      -44.45720000     -29.64070000     -71.40530000
H      -43.90160000     -30.61550000     -69.91700000
C      -44.12060000     -33.44240000     -68.90610000
H      -43.48820000     -33.77330000     -68.10630000
H      -44.09840000     -32.30820000     -68.79290000
C      -43.46540000     -33.77520000     -70.19660000
C      -42.76470000     -34.98800000     -70.34080000
C      -43.39500000     -33.04050000     -71.50290000
H      -42.76510000     -35.81920000     -69.66800000
C      -42.77470000     -33.74740000     -72.52600000
C      -43.97960000     -31.71090000     -71.85400000
C      -43.68580000     -31.48830000     -73.17430000
S      -42.11360000     -35.27560000     -71.99380000
S      -42.80960000     -32.77650000     -74.00890000
H      -43.90320000     -30.62880000     -73.71240000
