40
Properties=species:S:1:pos:R:3 #=T CELL(abcABC):=T 1.889726e+02=T 90.00000=T Traj:=T positionsangstrom=T Step:=T 0=T Bead:=T pbc="F F F"
C      -49.10200000     -32.41990000     -71.06350000
C      -47.87520000     -32.84210000     -70.59760000
C      -47.02670000     -33.61690000     -71.41590000
C      -47.33970000     -33.91960000     -72.74260000
C      -48.56550000     -33.40350000     -73.24680000
C      -49.34250000     -32.61610000     -72.43390000
H      -49.71800000     -31.88230000     -70.39360000
H      -46.07730000     -33.87340000     -71.02930000
H      -48.84350000     -33.57370000     -74.19850000
H      -50.16830000     -32.23510000     -72.99460000
C      -46.36650000     -34.69320000     -73.56160000
H      -46.79200000     -35.48550000     -74.12710000
H      -45.65320000     -35.23100000     -72.94810000
C      -47.54600000     -32.55330000     -69.16280000
H      -48.39570000     -32.33380000     -68.49770000
H      -46.96420000     -33.33300000     -68.77120000
S      -45.46160000     -33.56170000     -74.83640000
S      -46.57330000     -30.98760000     -68.91180000
C      -44.53470000     -32.39930000     -73.67790000
H      -44.49270000     -31.47260000     -74.25280000
H      -45.08010000     -32.24040000     -72.77450000
C      -45.53120000     -30.69220000     -70.51110000
H      -45.54910000     -29.62600000     -70.67040000
H      -46.05870000     -31.14210000     -71.34730000
C      -44.09140000     -31.11510000     -70.45890000
H      -43.50510000     -30.89850000     -71.38630000
H      -43.60970000     -30.42740000     -69.69320000
C      -43.10540000     -32.85530000     -73.35000000
H      -42.61750000     -31.96380000     -73.03220000
H      -42.58000000     -33.08370000     -74.26490000
C      -43.10250000     -33.95940000     -72.30820000
C      -42.85890000     -35.27460000     -72.58230000
C      -43.41500000     -33.69310000     -70.97150000
H      -42.62110000     -35.78120000     -73.56390000
C      -43.39820000     -34.86840000     -70.22490000
C      -43.78760000     -32.59740000     -70.13800000
C      -44.08280000     -33.00120000     -68.82710000
S      -43.04150000     -36.29690000     -71.17210000
S      -43.83810000     -34.74850000     -68.54550000
H      -44.37230000     -32.32650000     -68.08380000
