40
Properties=species:S:1:pos:R:3 #=T CELL(abcABC):=T 1.889726e+02=T 90.00000=T Traj:=T positionsangstrom=T Step:=T 0=T Bead:=T pbc="F F F"
C      -48.94050000     -33.70420000     -71.29220000
C      -47.66670000     -33.59060000     -71.92160000
C      -46.74380000     -34.52250000     -71.56090000
C      -46.96760000     -35.53670000     -70.54200000
C      -48.24330000     -35.62900000     -70.01440000
C      -49.28930000     -34.73790000     -70.42740000
H      -49.65770000     -32.94640000     -71.51450000
H      -45.79650000     -34.45320000     -72.12840000
H      -48.57110000     -36.44860000     -69.39850000
H      -50.31970000     -34.84860000     -70.15580000
C      -45.90470000     -36.47780000     -70.08010000
H      -45.18220000     -36.56880000     -70.84870000
H      -46.30880000     -37.51300000     -70.00960000
C      -47.41980000     -32.52850000     -72.89920000
H      -46.48420000     -32.73580000     -73.44870000
H      -48.13680000     -32.40610000     -73.66440000
S      -45.19140000     -35.93380000     -68.43450000
S      -47.28810000     -30.75050000     -72.15410000
C      -44.89310000     -34.14330000     -68.63190000
H      -45.67470000     -33.67760000     -69.18640000
H      -44.82770000     -33.70680000     -67.60540000
C      -46.56550000     -31.01700000     -70.46190000
H      -46.96490000     -31.90800000     -70.06410000
H      -46.97600000     -30.27710000     -69.68480000
C      -45.03980000     -30.90850000     -70.31980000
H      -44.82250000     -29.82270000     -70.33120000
H      -44.76930000     -31.38430000     -69.41550000
C      -43.47560000     -33.77760000     -69.20960000
H      -42.89190000     -34.46130000     -68.63950000
H      -43.29450000     -32.73070000     -68.78720000
C      -43.20220000     -33.71210000     -70.64800000
C      -42.55390000     -34.72990000     -71.30390000
C      -43.61980000     -32.68330000     -71.59730000
H      -42.09140000     -35.58130000     -70.80400000
C      -43.20100000     -32.95230000     -72.91600000
C      -44.35000000     -31.42290000     -71.51900000
C      -44.37530000     -30.77270000     -72.75980000
S      -42.27540000     -34.40850000     -73.03630000
S      -43.50300000     -31.68170000     -74.01430000
H      -44.76830000     -29.76860000     -72.84270000
