40
Properties=species:S:1:pos:R:3 #=T CELL(abcABC):=T 1.889726e+02=T 90.00000=T Traj:=T positionsangstrom=T Step:=T 0=T Bead:=T pbc="F F F"
C      -48.85830000     -33.48490000     -71.42570000
C      -47.62650000     -33.55160000     -72.10290000
C      -46.74910000     -34.62020000     -71.75200000
C      -47.01860000     -35.56310000     -70.70590000
C      -48.31110000     -35.47400000     -70.21660000
C      -49.21500000     -34.53000000     -70.56430000
H      -49.56960000     -32.66160000     -71.72950000
H      -45.80080000     -34.71190000     -72.24750000
H      -48.66750000     -36.24490000     -69.58690000
H      -50.13870000     -34.52480000     -70.06860000
C      -45.98500000     -36.51380000     -70.15750000
H      -45.09040000     -36.62840000     -70.80910000
H      -46.41450000     -37.46050000     -69.89140000
C      -47.21970000     -32.37010000     -73.00170000
H      -46.22970000     -32.36510000     -73.55910000
H      -48.02620000     -32.27160000     -73.77430000
S      -45.47740000     -35.92840000     -68.47030000
S      -47.30000000     -30.74050000     -72.13940000
C      -45.18630000     -34.10770000     -68.57310000
H      -45.89650000     -33.55540000     -69.17230000
H      -45.28500000     -33.66580000     -67.62520000
C      -46.41970000     -31.07820000     -70.59560000
H      -46.53560000     -32.19450000     -70.33720000
H      -46.98800000     -30.54160000     -69.83150000
C      -44.96660000     -30.67290000     -70.57790000
H      -44.84920000     -29.58610000     -70.74240000
H      -44.55140000     -30.95110000     -69.58620000
C      -43.78290000     -33.61050000     -69.10160000
H      -43.04390000     -34.33300000     -68.65500000
H      -43.62420000     -32.63860000     -68.63720000
C      -43.50650000     -33.71600000     -70.51520000
C      -42.92350000     -34.84130000     -71.00470000
C      -43.52770000     -32.63570000     -71.51180000
H      -42.84680000     -35.76110000     -70.49320000
C      -42.99640000     -33.03430000     -72.74520000
C      -44.18580000     -31.33510000     -71.66250000
C      -43.82940000     -30.69230000     -72.78690000
S      -42.57550000     -34.76160000     -72.71790000
S      -42.95410000     -31.76860000     -73.93360000
H      -44.13540000     -29.73920000     -73.13060000
