40
Properties=species:S:1:pos:R:3 #=T CELL(abcABC):=T 1.889726e+02=T 90.00000=T Traj:=T positionsangstrom=T Step:=T 0=T Bead:=T pbc="F F F"
C      -49.16490000     -34.09590000     -71.01670000
C      -48.01490000     -33.72540000     -71.74120000
C      -46.84950000     -34.43900000     -71.46550000
C      -46.88820000     -35.53300000     -70.59100000
C      -48.04540000     -35.95840000     -69.92790000
C      -49.19980000     -35.14230000     -70.14540000
H      -50.03190000     -33.49180000     -71.12480000
H      -45.94950000     -34.22590000     -72.01280000
H      -48.08130000     -36.83880000     -69.36380000
H      -50.06810000     -35.45030000     -69.64590000
C      -45.63840000     -36.30780000     -70.29650000
H      -44.87960000     -36.14620000     -71.09120000
H      -45.83670000     -37.38910000     -70.17190000
C      -47.80190000     -32.52390000     -72.57060000
H      -46.86420000     -32.56430000     -73.21330000
H      -48.49280000     -32.48700000     -73.46110000
S      -44.83680000     -35.78040000     -68.67660000
S      -47.80380000     -30.90490000     -71.64100000
C      -44.60250000     -33.98870000     -68.63040000
H      -45.39310000     -33.38150000     -68.97840000
H      -44.58990000     -33.68610000     -67.60750000
C      -46.56830000     -31.40350000     -70.31360000
H      -46.60460000     -32.47750000     -70.15500000
H      -46.93350000     -30.96600000     -69.34140000
C      -45.11820000     -30.81470000     -70.60210000
H      -45.23620000     -29.74110000     -70.72980000
H      -44.60720000     -31.07180000     -69.66180000
C      -43.30540000     -33.35690000     -69.22720000
H      -42.45440000     -33.71770000     -68.64130000
H      -43.35640000     -32.29360000     -69.03770000
C      -43.07580000     -33.52240000     -70.72920000
C      -42.21840000     -34.38840000     -71.29670000
C      -43.57960000     -32.61960000     -71.74290000
H      -41.60250000     -35.06030000     -70.78450000
C      -43.15500000     -32.92420000     -73.00580000
C      -44.40940000     -31.39760000     -71.78910000
C      -44.61930000     -30.90940000     -73.04130000
S      -42.02970000     -34.21320000     -73.04910000
S      -43.69800000     -31.80260000     -74.26850000
H      -45.39900000     -30.15440000     -73.29610000
