40
Properties=species:S:1:pos:R:3 #=T CELL(abcABC):=T 1.889726e+02=T 90.00000=T Traj:=T positionsangstrom=T Step:=T 0=T Bead:=T pbc="F F F"
C      -48.81500000     -34.72350000     -70.05360000
C      -47.95910000     -33.94880000     -70.85940000
C      -46.69580000     -34.37760000     -71.12910000
C      -46.20770000     -35.59870000     -70.65410000
C      -47.03600000     -36.35660000     -69.81130000
C      -48.31890000     -35.90810000     -69.51170000
H      -49.84810000     -34.59460000     -69.95700000
H      -46.04080000     -33.84810000     -71.83940000
H      -46.75900000     -37.30070000     -69.45610000
H      -48.97860000     -36.46260000     -68.85840000
C      -44.84330000     -36.08750000     -70.88380000
H      -44.43200000     -35.59720000     -71.80270000
H      -44.78510000     -37.13420000     -70.87050000
C      -48.53330000     -32.74790000     -71.57730000
H      -48.17320000     -32.79020000     -72.62970000
H      -49.61140000     -32.88040000     -71.65610000
S      -43.82340000     -35.59970000     -69.40580000
S      -48.25840000     -31.15810000     -70.67820000
C      -44.35010000     -33.78380000     -69.06200000
H      -45.36140000     -33.59970000     -69.52640000
H      -44.54850000     -33.92040000     -67.96870000
C      -46.60700000     -31.18940000     -69.96740000
H      -46.38740000     -32.20850000     -69.56310000
H      -46.72530000     -30.54900000     -69.11070000
C      -45.45780000     -30.60270000     -70.87370000
H      -45.89710000     -29.69440000     -71.26190000
H      -44.58090000     -30.34710000     -70.27870000
C      -43.29630000     -32.84730000     -69.48600000
H      -42.29890000     -32.97970000     -69.06160000
H      -43.59580000     -31.83490000     -69.22020000
C      -43.10540000     -32.93370000     -71.01980000
C      -42.09860000     -33.71150000     -71.57210000
C      -43.84500000     -32.32470000     -72.07550000
H      -41.32020000     -34.20180000     -71.00170000
C      -43.49040000     -32.79590000     -73.31150000
C      -44.98010000     -31.37480000     -72.10310000
C      -45.43220000     -31.19480000     -73.39270000
S      -42.11790000     -33.93290000     -73.28490000
S      -44.63090000     -32.23220000     -74.58180000
H      -46.41940000     -30.62370000     -73.62100000
