40
Properties=species:S:1:pos:R:3 #=T CELL(abcABC):=T 1.889726e+02=T 90.00000=T Traj:=T positionsangstrom=T Step:=T 0=T Bead:=T pbc="F F F"
C      -48.97800000     -34.53600000     -70.85490000
C      -47.98050000     -33.72690000     -71.44320000
C      -46.60320000     -34.07930000     -71.36660000
C      -46.32410000     -35.34860000     -70.84950000
C      -47.28900000     -36.03540000     -70.12480000
C      -48.63210000     -35.62560000     -70.07580000
H      -50.02740000     -34.22640000     -71.09780000
H      -45.78190000     -33.51650000     -71.76860000
H      -47.02180000     -36.93420000     -69.52110000
H      -49.32510000     -36.15900000     -69.47950000
C      -44.93520000     -35.91290000     -70.91650000
H      -44.28880000     -35.55870000     -71.69000000
H      -44.93670000     -37.01510000     -71.05350000
C      -48.35110000     -32.43650000     -72.11930000
H      -47.59830000     -32.16530000     -72.86920000
H      -49.39200000     -32.44530000     -72.40600000
S      -43.98310000     -35.73510000     -69.28330000
S      -48.21950000     -31.03190000     -70.80930000
C      -44.21380000     -33.97960000     -68.72660000
H      -45.22000000     -33.74860000     -69.08950000
H      -44.26280000     -33.91580000     -67.67740000
C      -46.46850000     -31.10350000     -70.09770000
H      -46.26980000     -32.12520000     -69.91560000
H      -46.49700000     -30.68620000     -69.07240000
C      -45.25350000     -30.52640000     -70.76480000
H      -45.34450000     -29.46850000     -71.00450000
H      -44.54390000     -30.50740000     -69.91390000
C      -43.23300000     -32.88050000     -69.32220000
H      -42.20270000     -32.99950000     -68.88860000
H      -43.73210000     -31.91130000     -69.00770000
C      -43.02570000     -33.03700000     -70.75540000
C      -42.21930000     -34.06750000     -71.20040000
C      -43.85740000     -32.42050000     -71.80900000
H      -41.42430000     -34.54190000     -70.58730000
C      -43.52060000     -33.00130000     -73.06570000
C      -44.74970000     -31.33990000     -71.93990000
C      -45.20080000     -31.21360000     -73.24410000
S      -42.31140000     -34.28370000     -72.95210000
S      -44.47350000     -32.40550000     -74.37340000
H      -45.72680000     -30.41100000     -73.70770000
