40
Properties=species:S:1:pos:R:3 #=T CELL(abcABC):=T 1.889726e+02=T 90.00000=T Traj:=T positionsangstrom=T Step:=T 0=T Bead:=T pbc="F F F"
C      -48.88000000     -34.87340000     -69.87860000
C      -48.12360000     -34.12940000     -70.80840000
C      -46.90520000     -34.66860000     -71.24680000
C      -46.22850000     -35.68750000     -70.54470000
C      -46.98750000     -36.35140000     -69.56910000
C      -48.32290000     -35.97620000     -69.30330000
H      -49.90280000     -34.62530000     -69.57090000
H      -46.34490000     -34.08150000     -72.00180000
H      -46.64790000     -37.21690000     -69.05580000
H      -48.90810000     -36.63890000     -68.58860000
C      -44.73330000     -35.94080000     -70.86010000
H      -44.39630000     -35.48280000     -71.77480000
H      -44.62220000     -37.00710000     -71.03400000
C      -48.63090000     -32.88590000     -71.50330000
H      -48.19180000     -32.76200000     -72.48470000
H      -49.70550000     -32.92910000     -71.60990000
S      -43.58740000     -35.64940000     -69.39240000
S      -48.33160000     -31.29520000     -70.56830000
C      -43.89790000     -33.86820000     -68.90470000
H      -44.89070000     -33.60120000     -69.14700000
H      -43.76670000     -33.80580000     -67.85500000
C      -46.59330000     -31.36660000     -70.00880000
H      -46.36700000     -32.37970000     -69.78280000
H      -46.70030000     -30.86550000     -69.01700000
C      -45.66010000     -30.60260000     -70.96110000
H      -46.18220000     -29.72340000     -71.29940000
H      -44.77430000     -30.17030000     -70.33950000
C      -43.15140000     -32.68840000     -69.59170000
H      -42.11220000     -32.55870000     -69.16220000
H      -43.77890000     -31.78660000     -69.34330000
C      -43.11450000     -32.90390000     -71.11130000
C      -42.07290000     -33.60680000     -71.70740000
C      -43.95700000     -32.35250000     -72.10160000
H      -41.32050000     -34.13950000     -71.13570000
C      -43.63540000     -32.77890000     -73.37670000
C      -45.12140000     -31.42390000     -72.11750000
C      -45.52950000     -31.25790000     -73.41700000
S      -42.12960000     -33.59030000     -73.49950000
S      -44.62440000     -32.06940000     -74.64250000
H      -46.52890000     -30.73780000     -73.60080000
