40
Properties=species:S:1:pos:R:3 #=T CELL(abcABC):=T 1.889726e+02=T 90.00000=T Traj:=T positionsangstrom=T Step:=T 0=T Bead:=T pbc="F F F"
C      -48.07760000     -35.17500000     -69.25140000
C      -47.47180000     -34.68610000     -70.41150000
C      -46.09410000     -34.96910000     -70.68600000
C      -45.32320000     -35.87360000     -69.98920000
C      -45.90850000     -36.33660000     -68.83460000
C      -47.26460000     -36.06250000     -68.50990000
H      -49.13170000     -34.83710000     -69.04960000
H      -45.57320000     -34.32080000     -71.43790000
H      -45.30630000     -36.94800000     -68.10940000
H      -47.55180000     -36.62880000     -67.63160000
C      -43.96040000     -36.15540000     -70.50880000
H      -43.98710000     -35.91480000     -71.58400000
H      -43.59920000     -37.22580000     -70.45920000
C      -48.20900000     -33.84830000     -71.39720000
H      -47.56800000     -33.65780000     -72.32870000
H      -49.24300000     -34.20060000     -71.61570000
S      -42.57000000     -35.13810000     -69.68410000
S      -48.60740000     -32.16680000     -70.69480000
C      -43.35700000     -33.50820000     -69.27850000
H      -44.48880000     -33.52870000     -69.21320000
H      -42.99860000     -33.18430000     -68.20730000
C      -47.09450000     -31.82710000     -69.77960000
H      -46.66520000     -32.84050000     -69.55710000
H      -47.37110000     -31.36640000     -68.81300000
C      -46.08190000     -30.91630000     -70.49800000
H      -46.46890000     -29.91350000     -70.52200000
H      -45.21080000     -30.95120000     -69.92060000
C      -42.82640000     -32.40290000     -70.24750000
H      -41.75210000     -32.29300000     -70.14210000
H      -43.23020000     -31.43900000     -69.96430000
C      -43.24480000     -32.53920000     -71.67230000
C      -42.45290000     -33.20230000     -72.51890000
C      -44.46610000     -32.11280000     -72.30990000
H      -41.51170000     -33.69850000     -72.29410000
C      -44.51050000     -32.40880000     -73.67210000
C      -45.68180000     -31.33280000     -71.93500000
C      -46.42280000     -30.94850000     -73.04550000
S      -43.03570000     -33.24370000     -74.22410000
S      -45.81160000     -31.61240000     -74.51610000
H      -47.39180000     -30.42800000     -73.00490000
