40
Properties=species:S:1:pos:R:3 #=T CELL(abcABC):=T 1.889726e+02=T 90.00000=T Traj:=T positionsangstrom=T Step:=T 0=T Bead:=T pbc="F F F"
C      -42.17850000     -32.60270000     -69.66340000
C      -42.08050000     -33.08010000     -70.97570000
C      -42.40210000     -32.18660000     -71.99270000
C      -42.75310000     -30.88490000     -71.73330000
C      -42.76910000     -30.35390000     -70.41430000
C      -42.49130000     -31.21340000     -69.39570000
H      -42.00820000     -33.34930000     -68.86840000
H      -42.31720000     -32.51350000     -73.06750000
H      -43.06950000     -29.31760000     -70.25820000
H      -42.54070000     -30.95240000     -68.34530000
C      -43.29070000     -30.08790000     -72.93590000
H      -42.46420000     -29.81220000     -73.53530000
H      -43.87270000     -29.19830000     -72.50590000
C      -41.66480000     -34.49070000     -71.48070000
H      -41.98230000     -34.61660000     -72.51960000
H      -40.56180000     -34.52560000     -71.31830000
S      -44.44700000     -31.02480000     -74.00100000
S      -42.44790000     -35.91150000     -70.48840000
C      -45.90390000     -31.06610000     -72.85460000
H      -45.88850000     -30.12010000     -72.30740000
H      -46.77430000     -31.12700000     -73.53400000
C      -44.15600000     -35.38480000     -70.38950000
H      -44.18130000     -34.30230000     -70.11430000
H      -44.47680000     -35.95780000     -69.48130000
C      -45.07190000     -35.67770000     -71.50810000
H      -44.80850000     -35.02080000     -72.37720000
H      -44.90450000     -36.73070000     -71.76240000
C      -45.78060000     -32.33450000     -71.97270000
H      -45.14960000     -32.05130000     -71.10380000
H      -45.09920000     -33.02380000     -72.50230000
C      -47.12340000     -32.88830000     -71.61480000
C      -48.25340000     -32.11060000     -71.39750000
C      -47.30690000     -34.26960000     -71.29430000
H      -48.32410000     -31.03390000     -71.53660000
C      -48.63780000     -34.40240000     -70.80120000
C      -46.55530000     -35.47170000     -71.04280000
C      -47.25370000     -36.50360000     -70.51540000
S      -49.66470000     -33.03270000     -70.84130000
S      -48.99820000     -36.05930000     -70.31920000
H      -46.81780000     -37.46350000     -70.46650000
