40
Properties=species:S:1:pos:R:3 #=T CELL(abcABC):=T 1.889726e+02=T 90.00000=T Traj:=T positionsangstrom=T Step:=T 0=T Bead:=T pbc="F F F"
C      -49.17970000     -32.43720000     -70.98080000
C      -47.91920000     -32.84260000     -70.56070000
C      -47.12240000     -33.58410000     -71.44860000
C      -47.51770000     -33.79580000     -72.76750000
C      -48.73160000     -33.28780000     -73.21290000
C      -49.61460000     -32.70840000     -72.28420000
H      -49.93840000     -31.87660000     -70.32120000
H      -46.14880000     -34.03310000     -70.97770000
H      -48.93990000     -33.26500000     -74.23630000
H      -50.59190000     -32.37290000     -72.59730000
C      -46.58880000     -34.56220000     -73.65210000
H      -47.19530000     -35.25040000     -74.23360000
H      -45.80290000     -35.07730000     -73.12510000
C      -47.35870000     -32.59010000     -69.26940000
H      -48.20170000     -32.58540000     -68.60910000
H      -46.65950000     -33.35440000     -68.97440000
S      -45.66880000     -33.57710000     -74.96680000
S      -46.59800000     -30.92060000     -69.07840000
C      -44.56710000     -32.42110000     -73.92910000
H      -44.50760000     -31.52830000     -74.57310000
H      -45.22110000     -32.07730000     -73.08060000
C      -45.47660000     -30.73790000     -70.51110000
H      -45.48460000     -29.70630000     -70.82630000
H      -45.99210000     -31.21180000     -71.33950000
C      -44.02990000     -31.13750000     -70.24900000
H      -43.36680000     -30.89570000     -71.12040000
H      -43.74180000     -30.64840000     -69.33160000
C      -43.27030000     -32.95460000     -73.44460000
H      -42.66350000     -32.10340000     -73.18710000
H      -42.85300000     -33.39210000     -74.33340000
C      -43.23310000     -33.95720000     -72.29490000
C      -42.79480000     -35.19830000     -72.59320000
C      -43.51120000     -33.73730000     -70.87530000
H      -42.69470000     -35.57230000     -73.56160000
C      -43.33180000     -34.92440000     -70.16890000
C      -43.87700000     -32.63290000     -70.00100000
C      -43.91780000     -33.05440000     -68.67210000
S      -42.71280000     -36.26710000     -71.14180000
S      -43.54200000     -34.79860000     -68.40900000
H      -44.02970000     -32.43580000     -67.74210000
