40
Properties=species:S:1:pos:R:3 #=T CELL(abcABC):=T 1.889726e+02=T 90.00000=T Traj:=T positionsangstrom=T Step:=T 0=T Bead:=T pbc="F F F"
C      -47.63560000     -35.19310000     -69.15860000
C      -47.21570000     -34.66780000     -70.38010000
C      -45.94480000     -35.06930000     -70.85290000
C      -45.01300000     -35.87400000     -70.15890000
C      -45.47090000     -36.33140000     -68.89310000
C      -46.75390000     -36.02560000     -68.45900000
H      -48.59370000     -35.01350000     -68.78940000
H      -45.70350000     -34.64820000     -71.78610000
H      -44.82210000     -37.03010000     -68.39070000
H      -47.24560000     -36.50430000     -67.55230000
C      -43.61720000     -36.19320000     -70.73770000
H      -43.48910000     -35.97850000     -71.82120000
H      -43.47450000     -37.23460000     -70.53160000
C      -48.02350000     -33.68830000     -71.18780000
H      -47.54610000     -33.46210000     -72.13610000
H      -49.04980000     -34.14380000     -71.43600000
S      -42.45770000     -35.18010000     -69.70080000
S      -48.38880000     -32.22780000     -70.19590000
C      -43.30200000     -33.60620000     -69.35390000
H      -44.37980000     -33.89780000     -69.28810000
H      -43.00140000     -33.34050000     -68.40190000
C      -46.70020000     -31.67790000     -69.63690000
H      -45.99200000     -32.46830000     -69.52170000
H      -46.82450000     -31.15620000     -68.66570000
C      -46.08210000     -30.63600000     -70.60400000
H      -46.63640000     -29.68700000     -70.63240000
H      -45.17040000     -30.30720000     -70.17710000
C      -43.09420000     -32.43960000     -70.35890000
H      -42.04790000     -32.20230000     -70.36330000
H      -43.65800000     -31.56410000     -69.98750000
C      -43.50950000     -32.68640000     -71.80070000
C      -42.82540000     -33.42480000     -72.68040000
C      -44.67570000     -31.98160000     -72.36400000
H      -41.86440000     -33.84470000     -72.58430000
C      -44.74640000     -32.27000000     -73.75020000
C      -45.79450000     -31.11130000     -72.00220000
C      -46.73570000     -30.88550000     -73.02520000
S      -43.49910000     -33.33860000     -74.31860000
S      -46.22790000     -31.63880000     -74.54550000
H      -47.66740000     -30.24040000     -72.96170000
