40
Properties=species:S:1:pos:R:3 #=T CELL(abcABC):=T 1.889726e+02=T 90.00000=T Traj:=T positionsangstrom=T Step:=T 0=T Bead:=T pbc="F F F"
C      -41.62100000     -32.86510000     -69.75630000
C      -41.96570000     -33.26530000     -71.07440000
C      -42.45360000     -32.31600000     -71.95860000
C      -42.61060000     -30.94180000     -71.54670000
C      -42.43600000     -30.60810000     -70.17010000
C      -42.01030000     -31.61540000     -69.27500000
H      -41.39260000     -33.65850000     -69.01660000
H      -42.78790000     -32.59020000     -72.98180000
H      -42.65410000     -29.56180000     -69.81990000
H      -42.04990000     -31.42770000     -68.24360000
C      -43.14990000     -29.87320000     -72.43280000
H      -42.34350000     -29.50900000     -73.16670000
H      -43.50120000     -29.03350000     -71.81230000
C      -41.75890000     -34.71580000     -71.52350000
H      -42.04920000     -34.85800000     -72.59400000
H      -40.72990000     -35.08650000     -71.43980000
S      -44.39270000     -30.48350000     -73.64030000
S      -42.63470000     -35.95120000     -70.60620000
C      -45.82150000     -30.85780000     -72.42910000
H      -45.86550000     -29.99870000     -71.70890000
H      -46.73140000     -30.85720000     -72.97470000
C      -44.43500000     -35.37440000     -70.42640000
H      -44.39090000     -34.35200000     -70.21770000
H      -44.84580000     -35.86180000     -69.52540000
C      -45.24780000     -35.72590000     -71.60930000
H      -45.04860000     -35.10050000     -72.47020000
H      -45.09290000     -36.80640000     -71.72730000
C      -45.75340000     -32.23800000     -71.71550000
H      -45.14250000     -32.20610000     -70.76380000
H      -45.34270000     -33.02140000     -72.39820000
C      -47.08850000     -32.84940000     -71.42740000
C      -48.19480000     -32.04780000     -71.27260000
C      -47.40360000     -34.27540000     -71.25270000
H      -48.33850000     -30.92430000     -71.40200000
C      -48.73400000     -34.46070000     -70.89400000
C      -46.69100000     -35.49770000     -71.33690000
C      -47.51810000     -36.58720000     -71.12550000
S      -49.66140000     -32.98940000     -70.93770000
S      -49.15030000     -36.14670000     -70.82340000
H      -47.27690000     -37.64420000     -70.96800000
