40
Properties=species:S:1:pos:R:3 #=T CELL(abcABC):=T 1.889726e+02=T 90.00000=T Traj:=T positionsangstrom=T Step:=T 0=T Bead:=T pbc="F F F"
C      -41.97590000     -32.86750000     -69.63110000
C      -42.10000000     -33.26590000     -71.00440000
C      -42.38020000     -32.30800000     -71.98380000
C      -42.68080000     -30.99030000     -71.54910000
C      -42.42710000     -30.53610000     -70.21070000
C      -41.98290000     -31.51160000     -69.29520000
H      -41.77980000     -33.61420000     -68.88160000
H      -42.50570000     -32.59470000     -73.05110000
H      -42.50880000     -29.49660000     -70.06070000
H      -41.79820000     -31.22420000     -68.27930000
C      -43.16520000     -29.94170000     -72.55240000
H      -42.19600000     -29.69990000     -73.05270000
H      -43.50100000     -29.08260000     -72.04360000
C      -41.71500000     -34.76960000     -71.37990000
H      -41.91490000     -34.92190000     -72.44610000
H      -40.59130000     -34.90630000     -71.26270000
S      -44.31610000     -30.67730000     -73.83850000
S      -42.54630000     -36.02700000     -70.33990000
C      -45.98430000     -30.98250000     -72.96640000
H      -46.25750000     -30.00530000     -72.55220000
H      -46.68020000     -31.15940000     -73.77970000
C      -44.33180000     -35.47420000     -70.19570000
H      -44.36990000     -34.46700000     -69.76790000
H      -44.77810000     -36.18430000     -69.48710000
C      -45.16990000     -35.61950000     -71.51460000
H      -44.91890000     -34.84460000     -72.21370000
H      -44.98430000     -36.55060000     -72.01680000
C      -45.77920000     -32.17620000     -72.00030000
H      -45.27640000     -31.76470000     -71.07000000
H      -45.16890000     -32.98940000     -72.48430000
C      -47.11990000     -32.80570000     -71.56040000
C      -48.22050000     -31.99630000     -71.20230000
C      -47.42410000     -34.18520000     -71.38280000
H      -48.22920000     -30.90160000     -71.22060000
C      -48.80020000     -34.39690000     -71.22420000
C      -46.65920000     -35.43910000     -71.30660000
C      -47.49460000     -36.46760000     -70.94050000
S      -49.64390000     -32.96490000     -70.78740000
S      -49.16930000     -36.06290000     -70.75030000
H      -47.16640000     -37.49950000     -70.80770000
