40
Properties=species:S:1:pos:R:3 #=T CELL(abcABC):=T 1.889726e+02=T 90.00000=T Traj:=T positionsangstrom=T Step:=T 0=T Bead:=T pbc="F F F"
C      -41.75000000     -32.85020000     -69.62240000
C      -41.99710000     -33.22160000     -70.94210000
C      -42.52420000     -32.33630000     -71.85410000
C      -42.65460000     -30.98000000     -71.54020000
C      -42.45350000     -30.53740000     -70.15540000
C      -42.02830000     -31.51810000     -69.26560000
H      -41.37840000     -33.54020000     -68.84440000
H      -42.71730000     -32.66990000     -72.89010000
H      -42.63360000     -29.45500000     -69.86580000
H      -41.79560000     -31.25970000     -68.21440000
C      -43.12180000     -30.02690000     -72.55870000
H      -42.34980000     -29.54060000     -73.12140000
H      -43.62320000     -29.16290000     -72.07600000
C      -41.75670000     -34.62030000     -71.52010000
H      -42.19470000     -34.59860000     -72.52610000
H      -40.70810000     -34.81260000     -71.65510000
S      -44.39240000     -30.62980000     -73.79350000
S      -42.56300000     -35.95010000     -70.46770000
C      -45.83740000     -31.00840000     -72.69110000
H      -45.87820000     -30.16310000     -72.02060000
H      -46.73790000     -30.91670000     -73.33990000
C      -44.29640000     -35.39090000     -70.40560000
H      -44.15680000     -34.29420000     -70.16520000
H      -44.79960000     -35.84460000     -69.50020000
C      -45.23470000     -35.68080000     -71.53700000
H      -44.92480000     -35.20980000     -72.43030000
H      -45.07170000     -36.73020000     -71.74910000
C      -45.76480000     -32.32500000     -71.87110000
H      -45.07750000     -32.17170000     -71.06370000
H      -45.20630000     -32.99540000     -72.48020000
C      -47.06320000     -32.80530000     -71.35890000
C      -48.23110000     -32.05710000     -71.36780000
C      -47.43200000     -34.23900000     -71.17530000
H      -48.21150000     -30.99700000     -71.53960000
C      -48.78040000     -34.39650000     -70.90790000
C      -46.67230000     -35.49420000     -71.23390000
C      -47.49490000     -36.58710000     -71.13710000
S      -49.65630000     -32.92780000     -70.93070000
S      -49.17940000     -36.09440000     -70.79510000
H      -47.26570000     -37.61590000     -71.38990000
