40
Properties=species:S:1:pos:R:3 #=T CELL(abcABC):=T 1.889726e+02=T 90.00000=T Traj:=T positionsangstrom=T Step:=T 0=T Bead:=T pbc="F F F"
C      -49.02130000     -32.57020000     -70.98890000
C      -47.73530000     -32.93720000     -70.60390000
C      -46.92610000     -33.65400000     -71.50900000
C      -47.44130000     -33.87210000     -72.77270000
C      -48.69090000     -33.37680000     -73.14950000
C      -49.48010000     -32.65440000     -72.30040000
H      -49.70290000     -31.97070000     -70.26970000
H      -45.96430000     -34.06050000     -71.24730000
H      -49.13400000     -33.64670000     -74.13170000
H      -50.59570000     -32.40640000     -72.35960000
C      -46.58840000     -34.73220000     -73.80360000
H      -47.22380000     -35.45020000     -74.32640000
H      -45.78380000     -35.32340000     -73.27510000
C      -47.35970000     -32.64470000     -69.18400000
H      -48.30450000     -32.62540000     -68.53550000
H      -46.63570000     -33.24940000     -68.70090000
S      -45.73210000     -33.61520000     -75.01070000
S      -46.71450000     -30.85340000     -69.05900000
C      -44.85050000     -32.45290000     -73.88030000
H      -44.75720000     -31.54590000     -74.39510000
H      -45.51580000     -32.27770000     -73.02300000
C      -45.57410000     -30.70700000     -70.49300000
H      -45.58830000     -29.64890000     -70.85850000
H      -45.94040000     -31.31290000     -71.33760000
C      -44.11760000     -31.16270000     -70.29720000
H      -43.65890000     -31.11510000     -71.29510000
H      -43.51710000     -30.50320000     -69.61790000
C      -43.42450000     -32.76710000     -73.32810000
H      -42.89050000     -31.85340000     -72.97410000
H      -42.69730000     -33.11480000     -74.08110000
C      -43.31250000     -33.92740000     -72.30090000
C      -43.01240000     -35.24750000     -72.55300000
C      -43.37800000     -33.69970000     -70.84150000
H      -42.85790000     -35.65730000     -73.53820000
C      -43.09600000     -34.84430000     -70.15030000
C      -43.81450000     -32.59510000     -69.95410000
C      -43.88060000     -33.03360000     -68.64800000
S      -42.77270000     -36.22670000     -71.14920000
S      -43.40430000     -34.72810000     -68.45010000
H      -44.05590000     -32.32460000     -67.74930000
