40
Properties=species:S:1:pos:R:3 #=T CELL(abcABC):=T 1.889726e+02=T 90.00000=T Traj:=T positionsangstrom=T Step:=T 0=T Bead:=T pbc="F F F"
C      -41.23500000     -33.33220000     -70.03090000
C      -41.74010000     -33.39170000     -71.33100000
C      -42.26300000     -32.22420000     -71.87260000
C      -42.43040000     -31.00470000     -71.13020000
C      -41.91770000     -30.99600000     -69.79720000
C      -41.36110000     -32.13660000     -69.32420000
H      -40.71410000     -34.25060000     -69.71960000
H      -42.51830000     -32.35060000     -72.89580000
H      -41.98400000     -30.05480000     -69.21690000
H      -40.93590000     -32.13580000     -68.34930000
C      -42.91770000     -29.81020000     -71.86240000
H      -42.15210000     -29.37060000     -72.54300000
H      -43.07800000     -28.97050000     -71.15120000
C      -41.84310000     -34.61930000     -72.10720000
H      -42.49390000     -34.46380000     -72.98430000
H      -40.93760000     -35.12310000     -72.49540000
S      -44.52360000     -29.92060000     -72.87740000
S      -42.65050000     -35.97370000     -71.02670000
C      -45.58690000     -31.19410000     -71.94800000
H      -44.90090000     -31.65400000     -71.28170000
H      -46.29030000     -30.55920000     -71.41520000
C      -44.39400000     -35.43460000     -70.61730000
H      -44.36060000     -34.33670000     -70.39980000
H      -44.77610000     -35.93650000     -69.72600000
C      -45.36620000     -35.74650000     -71.77930000
H      -45.14120000     -35.02770000     -72.62270000
H      -45.19920000     -36.77480000     -72.16620000
C      -46.25650000     -32.26510000     -72.84390000
H      -45.52280000     -33.10130000     -73.16130000
H      -46.59010000     -31.86400000     -73.82000000
C      -47.41240000     -32.90530000     -72.08870000
C      -48.53980000     -32.18060000     -71.79470000
C      -47.56110000     -34.28530000     -71.57410000
H      -48.81220000     -31.19200000     -72.13540000
C      -48.81770000     -34.33290000     -70.89600000
C      -46.82020000     -35.48890000     -71.33500000
C      -47.58960000     -36.47890000     -70.73060000
S      -49.85920000     -32.98750000     -71.00930000
S      -49.18520000     -35.98090000     -70.30060000
H      -47.13040000     -37.46230000     -70.51580000
