40
Properties=species:S:1:pos:R:3 #=T CELL(abcABC):=T 1.889726e+02=T 90.00000=T Traj:=T positionsangstrom=T Step:=T 0=T Bead:=T pbc="F F F"
C      -47.17490000     -35.29490000     -68.80650000
C      -46.86710000     -34.57220000     -69.92070000
C      -45.62580000     -34.87190000     -70.49870000
C      -44.66570000     -35.80590000     -70.12150000
C      -45.04300000     -36.58130000     -68.99650000
C      -46.28170000     -36.31200000     -68.39490000
H      -48.11020000     -35.20980000     -68.25730000
H      -45.51990000     -34.30190000     -71.49450000
H      -44.34420000     -37.42300000     -68.74390000
H      -46.57050000     -36.87740000     -67.50070000
C      -43.35130000     -35.96340000     -70.88930000
H      -43.46790000     -35.71450000     -71.97480000
H      -42.98060000     -37.01970000     -70.88750000
C      -47.95930000     -33.75980000     -70.54400000
H      -47.76650000     -33.56390000     -71.62010000
H      -48.93580000     -34.25030000     -70.40460000
S      -42.03810000     -34.82730000     -70.27320000
S      -48.11710000     -32.04560000     -69.70640000
C      -42.91210000     -33.23300000     -69.78950000
H      -43.94410000     -33.53570000     -69.50040000
H      -42.20250000     -32.79220000     -68.98790000
C      -46.32670000     -31.54770000     -69.49440000
H      -45.70350000     -32.44610000     -69.47240000
H      -46.22220000     -31.11480000     -68.48310000
C      -45.98800000     -30.53500000     -70.66840000
H      -46.52390000     -29.62110000     -70.51780000
H      -45.03650000     -30.12020000     -70.61590000
C      -42.96760000     -32.14880000     -70.83100000
H      -41.94510000     -31.87100000     -71.22520000
H      -43.46290000     -31.19630000     -70.49050000
C      -43.66320000     -32.49820000     -72.14920000
C      -43.11570000     -33.34130000     -73.09400000
C      -45.00510000     -32.08770000     -72.54110000
H      -42.19480000     -33.85980000     -73.00050000
C      -45.47830000     -32.64360000     -73.75080000
C      -46.01540000     -31.20390000     -72.00400000
C      -47.08540000     -30.97920000     -72.88490000
S      -44.17900000     -33.66790000     -74.43160000
S      -46.97830000     -32.03130000     -74.33330000
H      -47.96000000     -30.41090000     -72.66390000
