40
Properties=species:S:1:pos:R:3 #=T CELL(abcABC):=T 1.889726e+02=T 90.00000=T Traj:=T positionsangstrom=T Step:=T 0=T Bead:=T pbc="F F F"
C      -40.95920000     -33.28470000     -70.02070000
C      -41.67540000     -33.45640000     -71.21090000
C      -42.31100000     -32.31900000     -71.81780000
C      -42.38080000     -31.13660000     -71.13840000
C      -41.83990000     -31.01580000     -69.85810000
C      -41.09060000     -32.06410000     -69.28030000
H      -40.38020000     -34.02900000     -69.53080000
H      -42.88810000     -32.44060000     -72.77690000
H      -41.94600000     -30.00680000     -69.32740000
H      -40.49150000     -31.91480000     -68.35640000
C      -43.05090000     -29.85850000     -71.70520000
H      -42.35810000     -29.23300000     -72.23610000
H      -43.45910000     -29.21060000     -70.91020000
C      -41.53490000     -34.72360000     -71.99890000
H      -41.90670000     -34.57670000     -72.99380000
H      -40.52760000     -35.23880000     -72.12720000
S      -44.28270000     -30.25950000     -73.04690000
S      -42.70050000     -36.13310000     -71.25200000
C      -45.62760000     -31.06810000     -72.04490000
H      -45.19650000     -31.44280000     -71.16630000
H      -46.35710000     -30.25170000     -71.74370000
C      -44.36540000     -35.34620000     -70.85250000
H      -44.34650000     -34.30500000     -70.58380000
H      -44.52480000     -35.86650000     -69.89050000
C      -45.44520000     -35.67030000     -71.84760000
H      -45.27590000     -35.02500000     -72.76190000
H      -45.49850000     -36.72930000     -72.14240000
C      -46.35690000     -32.18510000     -72.82710000
H      -45.60560000     -32.96490000     -73.01870000
H      -46.55900000     -31.78580000     -73.83550000
C      -47.56610000     -32.82870000     -72.12560000
C      -48.73320000     -32.15170000     -72.04930000
C      -47.70330000     -34.10810000     -71.36890000
H      -48.91350000     -31.12960000     -72.44020000
C      -48.96360000     -34.30190000     -70.83280000
C      -46.89160000     -35.34960000     -71.25650000
C      -47.63000000     -36.33380000     -70.55400000
S      -49.98450000     -32.94270000     -71.02040000
S      -49.21790000     -35.79590000     -70.01070000
H      -47.48050000     -37.37600000     -70.32830000
