40
Properties=species:S:1:pos:R:3 #=T CELL(abcABC):=T 1.889726e+02=T 90.00000=T Traj:=T positionsangstrom=T Step:=T 0=T Bead:=T pbc="F F F"
C      -41.27400000     -32.64270000     -69.96130000
C      -41.61810000     -33.31380000     -71.10890000
C      -42.19780000     -32.65560000     -72.19320000
C      -42.50080000     -31.31580000     -72.11200000
C      -42.31510000     -30.65000000     -70.85120000
C      -41.67260000     -31.28380000     -69.82000000
H      -40.66970000     -33.13480000     -69.24910000
H      -42.36150000     -33.13530000     -73.14370000
H      -42.45710000     -29.55890000     -70.91250000
H      -41.39450000     -30.79340000     -68.97290000
C      -43.06930000     -30.47690000     -73.19300000
H      -42.28130000     -30.34200000     -73.96950000
H      -43.40040000     -29.48460000     -72.77080000
C      -41.28320000     -34.88100000     -71.21850000
H      -40.54170000     -35.10180000     -72.03690000
H      -40.72740000     -35.11390000     -70.35440000
S      -44.42860000     -31.40530000     -73.99790000
S      -42.68000000     -36.04240000     -71.43860000
C      -45.57480000     -31.84120000     -72.58900000
H      -44.87820000     -32.30520000     -71.86040000
H      -46.00810000     -30.90370000     -72.14260000
C      -44.21540000     -35.06730000     -70.64060000
H      -43.98170000     -34.01650000     -70.85860000
H      -44.16560000     -35.22510000     -69.57940000
C      -45.50090000     -35.57690000     -71.26940000
H      -45.46650000     -35.28970000     -72.32050000
H      -45.57110000     -36.62540000     -71.15540000
C      -46.62810000     -32.76530000     -73.09020000
H      -46.13390000     -33.68070000     -73.45850000
H      -47.16310000     -32.23660000     -73.96380000
C      -47.72390000     -32.97720000     -72.01220000
C      -48.78320000     -32.13390000     -71.88690000
C      -47.68390000     -34.00540000     -70.98000000
H      -49.09730000     -31.54390000     -72.71000000
C      -48.80070000     -33.93530000     -70.19820000
C      -46.80570000     -35.10860000     -70.58930000
C      -47.36740000     -35.91230000     -69.64790000
S      -49.88750000     -32.57480000     -70.55650000
S      -48.87130000     -35.30050000     -69.04350000
H      -46.94170000     -36.79430000     -69.22480000
