40
Properties=species:S:1:pos:R:3 #=T CELL(abcABC):=T 1.889726e+02=T 90.00000=T Traj:=T positionsangstrom=T Step:=T 0=T Bead:=T pbc="F F F"
C      -41.32120000     -32.99450000     -70.09910000
C      -41.59710000     -33.47180000     -71.35550000
C      -42.28620000     -32.59900000     -72.23760000
C      -42.41980000     -31.24880000     -71.93840000
C      -42.11180000     -30.76910000     -70.64800000
C      -41.44880000     -31.65780000     -69.76320000
H      -40.70680000     -33.61730000     -69.43690000
H      -42.53800000     -32.92790000     -73.20430000
H      -42.19830000     -29.73660000     -70.41810000
H      -41.10470000     -31.31880000     -68.72960000
C      -42.98190000     -30.36760000     -73.05640000
H      -42.25180000     -30.34990000     -73.89570000
H      -43.17090000     -29.33470000     -72.77950000
C      -41.40250000     -34.95660000     -71.63240000
H      -41.31060000     -35.05520000     -72.70960000
H      -40.44650000     -35.31270000     -71.17130000
S      -44.48150000     -31.07650000     -73.86060000
S      -42.74040000     -36.11630000     -71.09300000
C      -45.66570000     -31.61620000     -72.52050000
H      -45.07620000     -32.19970000     -71.72450000
H      -46.07130000     -30.70000000     -72.04340000
C      -44.34890000     -35.12730000     -70.67250000
H      -44.05050000     -34.07150000     -70.72940000
H      -44.66250000     -35.36620000     -69.64710000
C      -45.47580000     -35.37170000     -71.64240000
H      -45.36950000     -34.86670000     -72.56270000
H      -45.55490000     -36.41360000     -72.04080000
C      -46.85110000     -32.40560000     -73.10240000
H      -46.47290000     -33.27320000     -73.63670000
H      -47.39750000     -31.87440000     -73.83110000
C      -47.85180000     -32.90140000     -72.08140000
C      -49.03440000     -32.18320000     -71.82950000
C      -47.62940000     -33.94120000     -71.08680000
H      -49.28000000     -31.19850000     -72.23180000
C      -48.67230000     -33.91980000     -70.09460000
C      -46.75580000     -35.08430000     -70.91900000
C      -47.15370000     -35.92890000     -69.89780000
S      -49.96210000     -32.78780000     -70.44760000
S      -48.65270000     -35.37000000     -69.13110000
H      -46.63180000     -36.76490000     -69.44030000
