40
Properties=species:S:1:pos:R:3 #=T CELL(abcABC):=T 1.889726e+02=T 90.00000=T Traj:=T positionsangstrom=T Step:=T 0=T Bead:=T pbc="F F F"
C      -41.52240000     -33.30070000     -70.20290000
C      -41.86420000     -33.57210000     -71.55010000
C      -42.38690000     -32.51820000     -72.39310000
C      -42.39180000     -31.19730000     -71.90810000
C      -41.91100000     -30.98950000     -70.58890000
C      -41.45320000     -31.97840000     -69.74920000
H      -41.28400000     -34.10870000     -69.43310000
H      -42.52690000     -32.71950000     -73.50010000
H      -41.63590000     -29.95220000     -70.30470000
H      -41.24700000     -31.69930000     -68.75580000
C      -43.10770000     -30.09010000     -72.76240000
H      -42.44090000     -29.54120000     -73.51560000
H      -43.51920000     -29.32260000     -72.09660000
C      -41.75690000     -34.85530000     -72.18510000
H      -42.03700000     -34.78680000     -73.23580000
H      -40.72070000     -35.21360000     -72.25410000
S      -44.58140000     -30.79370000     -73.65480000
S      -42.62410000     -36.18560000     -71.17570000
C      -45.50470000     -31.47690000     -72.19070000
H      -44.79930000     -32.02070000     -71.54610000
H      -45.70860000     -30.53290000     -71.61750000
C      -44.22510000     -35.38110000     -70.50120000
H      -43.84340000     -34.47570000     -70.06520000
H      -44.47350000     -35.96850000     -69.63330000
C      -45.33440000     -35.13720000     -71.57310000
H      -45.04660000     -34.24220000     -72.07650000
H      -45.44040000     -36.06170000     -72.20540000
C      -46.62080000     -32.30530000     -72.82120000
H      -46.27310000     -33.20830000     -73.43410000
H      -46.96570000     -31.64610000     -73.59340000
C      -47.70230000     -32.78530000     -71.89040000
C      -48.79070000     -32.01130000     -71.62530000
C      -47.63730000     -33.91550000     -71.02550000
H      -48.98470000     -31.05350000     -72.18300000
C      -48.81140000     -34.12570000     -70.32360000
C      -46.68070000     -35.00210000     -70.83370000
C      -47.16520000     -35.98590000     -70.01260000
S      -49.91460000     -32.76040000     -70.48650000
S      -48.78940000     -35.60620000     -69.40950000
H      -46.71730000     -36.98850000     -69.85740000
