40
Properties=species:S:1:pos:R:3 #=T CELL(abcABC):=T 1.889726e+02=T 90.00000=T Traj:=T positionsangstrom=T Step:=T 0=T Bead:=T pbc="F F F"
C      -41.31080000     -33.25450000     -70.24220000
C      -41.85920000     -33.57980000     -71.52670000
C      -42.32280000     -32.55170000     -72.39080000
C      -42.34080000     -31.17850000     -71.96060000
C      -42.00050000     -30.95140000     -70.65440000
C      -41.45730000     -31.91370000     -69.81840000
H      -40.73810000     -33.85230000     -69.57090000
H      -42.77600000     -32.71130000     -73.41840000
H      -42.19950000     -29.96070000     -70.16030000
H      -41.02700000     -31.67230000     -68.88760000
C      -42.84260000     -30.01300000     -72.78500000
H      -42.12410000     -29.61940000     -73.52240000
H      -42.96840000     -29.16420000     -72.13010000
C      -41.92430000     -34.95830000     -72.14430000
H      -42.35340000     -34.82440000     -73.15750000
H      -40.89580000     -35.37890000     -72.18470000
S      -44.41840000     -30.44560000     -73.62490000
S      -42.75650000     -36.31730000     -71.16380000
C      -45.61490000     -31.11130000     -72.32300000
H      -44.95880000     -31.52430000     -71.59100000
H      -46.21140000     -30.30150000     -71.97790000
C      -44.22700000     -35.62070000     -70.45700000
H      -43.96960000     -34.72060000     -69.78820000
H      -44.59380000     -36.42220000     -69.79160000
C      -45.35910000     -35.20770000     -71.45690000
H      -45.11150000     -34.35390000     -72.08280000
H      -45.43940000     -35.93380000     -72.28320000
C      -46.61720000     -32.22510000     -72.92950000
H      -45.89720000     -32.99060000     -73.25490000
H      -47.17490000     -31.89910000     -73.79530000
C      -47.61430000     -32.78270000     -71.89920000
C      -48.81860000     -32.11090000     -71.65640000
C      -47.59460000     -33.99200000     -71.10670000
H      -49.14090000     -31.18790000     -72.14000000
C      -48.75220000     -34.21020000     -70.35240000
C      -46.69870000     -35.10590000     -70.78060000
C      -47.26060000     -36.09820000     -69.93710000
S      -49.96650000     -32.92330000     -70.50610000
S      -48.84300000     -35.57050000     -69.32090000
H      -46.69810000     -37.03340000     -69.71290000
