40
Properties=species:S:1:pos:R:3 #=T CELL(abcABC):=T 1.889726e+02=T 90.00000=T Traj:=T positionsangstrom=T Step:=T 0=T Bead:=T pbc="F F F"
C      -43.58260000     -34.62340000     -68.08800000
C      -44.70790000     -34.47150000     -68.92100000
C      -44.62700000     -34.62580000     -70.37320000
C      -43.41290000     -35.01500000     -70.90630000
C      -42.33370000     -35.18080000     -70.06010000
C      -42.38230000     -34.91430000     -68.70650000
H      -43.62360000     -34.56270000     -66.91690000
H      -45.59030000     -34.60050000     -70.93950000
H      -41.41110000     -35.41920000     -70.54120000
H      -41.45950000     -34.91100000     -68.09590000
C      -43.22740000     -35.18360000     -72.36480000
H      -44.15400000     -35.16240000     -72.90810000
H      -42.78600000     -36.11520000     -72.72240000
C      -46.12350000     -34.11720000     -68.41440000
H      -46.81170000     -34.14790000     -69.19350000
H      -46.59260000     -34.71260000     -67.66660000
S      -42.35420000     -33.73690000     -73.17840000
S      -46.18330000     -32.37660000     -67.68570000
C      -42.92140000     -32.26610000     -72.22080000
H      -43.29830000     -32.65610000     -71.24710000
H      -42.03870000     -31.64970000     -71.97900000
C      -45.47100000     -31.45200000     -69.08890000
H      -44.51240000     -31.98890000     -69.37510000
H      -45.02110000     -30.55880000     -68.68980000
C      -46.42630000     -31.09770000     -70.23890000
H      -47.20860000     -30.50820000     -69.61340000
H      -45.84650000     -30.32910000     -70.76570000
C      -43.97120000     -31.47440000     -72.98330000
H      -43.46430000     -31.05750000     -73.83470000
H      -44.21840000     -30.61580000     -72.37300000
C      -45.24240000     -32.41880000     -73.26640000
C      -45.35890000     -33.20610000     -74.41440000
C      -46.41620000     -32.51400000     -72.45190000
H      -44.59400000     -33.29710000     -75.14970000
C      -47.39760000     -33.33750000     -73.11150000
C      -46.90550000     -32.12620000     -71.19930000
C      -48.14850000     -32.67970000     -70.87550000
S      -46.90070000     -33.99860000     -74.63360000
S      -48.80830000     -33.67110000     -72.18800000
H      -48.78030000     -32.39300000     -70.03860000
