40
Properties=species:S:1:pos:R:3 #=T CELL(abcABC):=T 1.889726e+02=T 90.00000=T Traj:=T positionsangstrom=T Step:=T 0=T Bead:=T pbc="F F F"
C      -41.35070000     -32.54820000     -69.79400000
C      -41.55070000     -33.28170000     -70.95050000
C      -42.14950000     -32.64900000     -72.01580000
C      -42.50820000     -31.24000000     -72.05580000
C      -42.23540000     -30.50620000     -70.87610000
C      -41.65280000     -31.14910000     -69.73900000
H      -40.94440000     -33.02280000     -68.88610000
H      -42.41170000     -33.36850000     -72.79830000
H      -42.69390000     -29.50460000     -70.76690000
H      -41.52540000     -30.54150000     -68.83770000
C      -43.02160000     -30.68930000     -73.37970000
H      -42.27140000     -30.73090000     -74.12310000
H      -43.22170000     -29.65460000     -73.25400000
C      -41.31140000     -34.75890000     -70.95920000
H      -40.56920000     -35.08190000     -71.65530000
H      -41.04860000     -35.09690000     -69.94100000
S      -44.42780000     -31.60910000     -74.19050000
S      -42.81380000     -35.71030000     -71.67930000
C      -45.58560000     -31.84440000     -72.78600000
H      -44.93420000     -32.09210000     -71.94320000
H      -46.09380000     -30.94710000     -72.48130000
C      -44.36240000     -35.18250000     -70.68220000
H      -44.46420000     -34.07960000     -70.76850000
H      -44.24560000     -35.52310000     -69.61180000
C      -45.66140000     -35.83960000     -71.22750000
H      -45.74010000     -35.58130000     -72.28830000
H      -45.53890000     -36.94090000     -71.25490000
C      -46.57280000     -32.94760000     -73.17240000
H      -45.98810000     -33.85620000     -73.45890000
H      -47.07850000     -32.65040000     -74.06400000
C      -47.62000000     -33.07910000     -72.01660000
C      -48.66590000     -32.21940000     -71.91720000
C      -47.59670000     -34.08720000     -70.92470000
H      -48.85610000     -31.36630000     -72.44650000
C      -48.70870000     -33.91670000     -70.12800000
C      -46.87430000     -35.28790000     -70.51870000
C      -47.45380000     -35.99460000     -69.49730000
S      -49.78210000     -32.60530000     -70.59690000
S      -48.84850000     -35.09390000     -68.87360000
H      -47.04610000     -36.84240000     -69.03500000
