40
Properties=species:S:1:pos:R:3 #=T CELL(abcABC):=T 1.889726e+02=T 90.00000=T Traj:=T positionsangstrom=T Step:=T 0=T Bead:=T pbc="F F F"
C      -41.66940000     -32.27520000     -69.59190000
C      -41.86330000     -33.15290000     -70.70820000
C      -42.25960000     -32.56230000     -71.92850000
C      -42.52730000     -31.20950000     -72.09800000
C      -42.32410000     -30.33890000     -70.96690000
C      -41.91910000     -30.88840000     -69.76370000
H      -41.23170000     -32.60320000     -68.64890000
H      -42.29310000     -33.20320000     -72.78690000
H      -42.55590000     -29.27810000     -71.15430000
H      -41.79740000     -30.12820000     -68.99590000
C      -42.99140000     -30.68700000     -73.45620000
H      -42.18630000     -30.72960000     -74.13940000
H      -43.30930000     -29.68190000     -73.45860000
C      -41.60290000     -34.68130000     -70.71170000
H      -40.59840000     -34.91450000     -71.16710000
H      -41.57820000     -35.06310000     -69.76760000
S      -44.21020000     -31.84280000     -74.14620000
S      -42.82860000     -35.66990000     -71.64840000
C      -45.46000000     -31.96490000     -72.72230000
H      -44.93900000     -32.08540000     -71.79720000
H      -46.08060000     -31.04940000     -72.63730000
C      -44.46910000     -35.09910000     -70.99300000
H      -44.71500000     -34.04770000     -71.33310000
H      -44.30140000     -35.05650000     -69.93620000
C      -45.70730000     -36.01640000     -71.27290000
H      -45.82730000     -36.03570000     -72.33790000
H      -45.53610000     -37.00680000     -70.87220000
C      -46.46490000     -33.12290000     -73.13120000
H      -45.94500000     -34.05630000     -73.21830000
H      -46.94320000     -32.76420000     -74.03950000
C      -47.57110000     -33.22730000     -72.08570000
C      -48.55410000     -32.25410000     -71.98610000
C      -47.58980000     -34.20190000     -71.02420000
H      -48.83250000     -31.57970000     -72.77310000
C      -48.67710000     -33.91990000     -70.14460000
C      -46.91690000     -35.36810000     -70.66310000
C      -47.48700000     -36.01710000     -69.57790000
S      -49.64440000     -32.57310000     -70.65580000
S      -48.71490000     -35.04320000     -68.80690000
H      -47.11070000     -36.87550000     -68.97680000
