40
Properties=species:S:1:pos:R:3 #=T CELL(abcABC):=T 1.889726e+02=T 90.00000=T Traj:=T positionsangstrom=T Step:=T 0=T Bead:=T pbc="F F F"
C      -41.98920000     -32.26090000     -69.42160000
C      -41.79020000     -33.03340000     -70.56720000
C      -41.98580000     -32.48800000     -71.88340000
C      -42.54560000     -31.22150000     -72.06800000
C      -42.77970000     -30.41680000     -70.92230000
C      -42.50470000     -30.92110000     -69.67870000
H      -41.84340000     -32.62190000     -68.34760000
H      -41.64010000     -33.20100000     -72.65030000
H      -43.35680000     -29.48960000     -70.96440000
H      -42.78630000     -30.25980000     -68.86610000
C      -42.93050000     -30.63800000     -73.43890000
H      -42.05520000     -30.59510000     -74.07680000
H      -43.35540000     -29.60220000     -73.39290000
C      -41.29510000     -34.43270000     -70.34260000
H      -40.34020000     -34.75180000     -70.66920000
H      -41.38940000     -34.62110000     -69.26100000
S      -44.21660000     -31.75190000     -74.28680000
S      -42.60400000     -35.75160000     -70.93640000
C      -45.55210000     -31.71650000     -73.08250000
H      -45.18650000     -31.61870000     -72.07150000
H      -46.20640000     -30.82510000     -73.15470000
C      -44.23480000     -35.19810000     -70.36990000
H      -44.17060000     -34.10450000     -70.61600000
H      -44.47260000     -35.30630000     -69.35130000
C      -45.40390000     -35.82820000     -71.22990000
H      -45.21280000     -35.56620000     -72.21510000
H      -45.47500000     -36.98170000     -71.15140000
C      -46.35970000     -32.97370000     -73.24450000
H      -45.76590000     -33.87550000     -73.07120000
H      -46.73980000     -32.98430000     -74.26790000
C      -47.49940000     -33.20900000     -72.22880000
C      -48.61450000     -32.42650000     -72.31770000
C      -47.58420000     -34.21890000     -71.20580000
H      -48.64340000     -31.63460000     -73.01540000
C      -48.70860000     -34.02780000     -70.36450000
C      -46.76530000     -35.31260000     -70.71590000
C      -47.33100000     -35.88470000     -69.60320000
S      -49.73320000     -32.71910000     -70.95050000
S      -48.91780000     -35.24040000     -69.19200000
H      -46.95460000     -36.77540000     -69.12980000
