40
Properties=species:S:1:pos:R:3 #=T CELL(abcABC):=T 1.889726e+02=T 90.00000=T Traj:=T positionsangstrom=T Step:=T 0=T Bead:=T pbc="F F F"
C      -42.43160000     -32.17770000     -69.37950000
C      -41.97600000     -32.99740000     -70.48620000
C      -42.16250000     -32.51900000     -71.78540000
C      -42.49040000     -31.09420000     -72.04650000
C      -42.92080000     -30.32370000     -70.93170000
C      -42.93800000     -30.91730000     -69.65930000
H      -42.37770000     -32.64700000     -68.37400000
H      -41.98990000     -33.22550000     -72.54680000
H      -43.06190000     -29.23170000     -70.89640000
H      -43.24190000     -30.29290000     -68.83200000
C      -42.75700000     -30.65800000     -73.47850000
H      -41.81270000     -30.71370000     -74.08090000
H      -43.03360000     -29.60880000     -73.66670000
C      -41.43180000     -34.42390000     -70.42550000
H      -40.54120000     -34.40930000     -71.16560000
H      -40.98020000     -34.50380000     -69.43510000
S      -44.01910000     -31.71000000     -74.25150000
S      -42.60670000     -35.75640000     -70.81640000
C      -45.38130000     -31.86080000     -72.97440000
H      -44.98490000     -31.76980000     -71.93770000
H      -46.11510000     -30.99450000     -73.07720000
C      -44.22410000     -35.08570000     -70.12970000
H      -44.17520000     -33.97620000     -70.04740000
H      -44.27160000     -35.49930000     -69.10370000
C      -45.26750000     -35.59200000     -71.07950000
H      -45.14200000     -35.35100000     -72.10190000
H      -45.08960000     -36.66160000     -70.94200000
C      -46.17500000     -33.11500000     -73.23860000
H      -45.49290000     -33.95640000     -73.16460000
H      -46.58530000     -33.01170000     -74.23750000
C      -47.33880000     -33.26760000     -72.23870000
C      -48.45520000     -32.42750000     -72.30450000
C      -47.47300000     -34.27100000     -71.25920000
H      -48.49270000     -31.65530000     -73.03670000
C      -48.77170000     -34.15480000     -70.57860000
C      -46.70700000     -35.26870000     -70.63360000
C      -47.34200000     -35.86730000     -69.58410000
S      -49.74960000     -32.85300000     -71.24290000
S      -49.00000000     -35.23860000     -69.25480000
H      -46.85480000     -36.51340000     -68.89110000
