40
Properties=species:S:1:pos:R:3 #=T CELL(abcABC):=T 1.889726e+02=T 90.00000=T Traj:=T positionsangstrom=T Step:=T 0=T Bead:=T pbc="F F F"
C      -42.62010000     -34.38970000     -68.82070000
C      -43.93630000     -34.40950000     -69.40000000
C      -44.09150000     -34.43560000     -70.78910000
C      -42.94040000     -34.46550000     -71.59720000
C      -41.63740000     -34.44550000     -71.02140000
C      -41.50900000     -34.39200000     -69.64060000
H      -42.53990000     -34.21040000     -67.74790000
H      -45.14720000     -34.43390000     -71.24470000
H      -40.76770000     -34.28640000     -71.72540000
H      -40.52020000     -34.44680000     -69.25850000
C      -43.12200000     -34.41330000     -73.07220000
H      -44.02770000     -34.95760000     -73.42600000
H      -42.26280000     -34.87990000     -73.52690000
C      -45.06590000     -34.29760000     -68.43410000
H      -45.91120000     -34.74670000     -68.89100000
H      -44.78120000     -34.89290000     -67.59140000
S      -42.92310000     -32.75470000     -73.90600000
S      -45.44730000     -32.54730000     -67.85550000
C      -43.87600000     -31.54470000     -72.83780000
H      -43.83480000     -31.84490000     -71.79490000
H      -43.17840000     -30.65730000     -72.96640000
C      -45.13100000     -31.43040000     -69.35420000
H      -44.40860000     -31.94660000     -70.03170000
H      -44.81700000     -30.46580000     -69.04310000
C      -46.37150000     -31.11930000     -70.25090000
H      -47.00750000     -30.45480000     -69.61830000
H      -46.03450000     -30.49110000     -71.03510000
C      -45.34250000     -31.28670000     -73.35850000
H      -45.31360000     -31.03860000     -74.39360000
H      -45.76550000     -30.43110000     -72.79410000
C      -46.17220000     -32.57730000     -73.14080000
C      -46.25610000     -33.61490000     -74.10500000
C      -47.02550000     -32.85090000     -72.05010000
H      -45.80930000     -33.52440000     -75.09170000
C      -47.80030000     -34.00180000     -72.22070000
C      -47.18600000     -32.24680000     -70.74750000
C      -48.05750000     -32.94850000     -69.98550000
S      -47.40510000     -34.91260000     -73.71870000
S      -48.69600000     -34.38820000     -70.80920000
H      -48.26620000     -32.75860000     -68.86260000
