40
Properties=species:S:1:pos:R:3 #=T CELL(abcABC):=T 1.889726e+02=T 90.00000=T Traj:=T positionsangstrom=T Step:=T 0=T Bead:=T pbc="F F F"
C      -43.57460000     -32.17370000     -72.53770000
C      -44.08960000     -33.23220000     -73.31000000
C      -45.46790000     -33.14650000     -73.69940000
C      -46.28000000     -32.09170000     -73.25090000
C      -45.78660000     -31.16780000     -72.30550000
C      -44.39620000     -31.12440000     -72.00100000
H      -42.57550000     -32.08700000     -72.28380000
H      -45.90910000     -33.76040000     -74.51200000
H      -46.42250000     -30.31070000     -71.90960000
H      -44.01110000     -30.41000000     -71.34120000
C      -47.75110000     -32.00910000     -73.55780000
H      -47.93770000     -31.74870000     -74.63160000
H      -48.22010000     -31.19560000     -72.94820000
C      -43.16070000     -34.39650000     -73.66820000
H      -43.78980000     -35.21260000     -74.08290000
H      -42.54510000     -33.97880000     -74.51290000
S      -48.77120000     -33.64630000     -73.23180000
S      -42.03690000     -35.23890000     -72.44280000
C      -48.93640000     -34.02720000     -71.46220000
H      -49.35030000     -33.14480000     -70.92130000
H      -49.74940000     -34.76750000     -71.41700000
C      -43.27470000     -36.36190000     -71.74040000
H      -42.71920000     -36.67860000     -70.85000000
H      -43.46180000     -37.23220000     -72.40980000
C      -44.52310000     -35.63550000     -71.30980000
H      -45.12150000     -35.28660000     -72.18780000
H      -45.21280000     -36.35950000     -70.91710000
C      -47.79450000     -34.56800000     -70.71810000
H      -47.25720000     -35.24730000     -71.36970000
H      -48.15900000     -35.31830000     -69.97420000
C      -46.85960000     -33.62530000     -69.98890000
C      -47.49060000     -32.52950000     -69.41060000
C      -45.46680000     -33.67340000     -69.82630000
H      -48.48810000     -32.13510000     -69.52410000
C      -44.93230000     -32.54300000     -69.11510000
C      -44.39600000     -34.53030000     -70.27330000
C      -43.18790000     -34.22180000     -69.73970000
S      -46.24630000     -31.56830000     -68.60460000
S      -43.24810000     -32.72890000     -68.82830000
H      -42.13660000     -34.71120000     -70.00710000
