40
Properties=species:S:1:pos:R:3 #=T CELL(abcABC):=T 1.889726e+02=T 90.00000=T Traj:=T positionsangstrom=T Step:=T 0=T Bead:=T pbc="F F F"
C      -48.83080000     -32.52430000     -71.12920000
C      -47.59270000     -32.96040000     -70.63490000
C      -46.88930000     -33.80180000     -71.49440000
C      -47.32840000     -34.13790000     -72.81750000
C      -48.57310000     -33.74500000     -73.23720000
C      -49.38750000     -32.93250000     -72.38060000
H      -49.36680000     -31.81800000     -70.48970000
H      -45.83100000     -34.07790000     -71.26220000
H      -48.87140000     -33.98110000     -74.22900000
H      -50.32790000     -32.46560000     -72.71930000
C      -46.43180000     -35.06110000     -73.58200000
H      -47.08590000     -35.76260000     -74.09940000
H      -45.82180000     -35.64760000     -72.84570000
C      -47.13850000     -32.64270000     -69.28160000
H      -48.07830000     -32.72290000     -68.63210000
H      -46.47420000     -33.40630000     -68.95640000
S      -45.40070000     -34.18940000     -74.87860000
S      -46.45230000     -30.94570000     -69.08280000
C      -45.03970000     -32.53740000     -74.03160000
H      -45.02490000     -31.81290000     -74.87020000
H      -45.88190000     -32.37830000     -73.41820000
C      -45.39080000     -30.64030000     -70.62990000
H      -45.44470000     -29.60300000     -70.86560000
H      -45.82940000     -31.25250000     -71.43220000
C      -43.92070000     -30.94480000     -70.38550000
H      -43.27190000     -30.55340000     -71.20200000
H      -43.54350000     -30.35120000     -69.55930000
C      -43.70890000     -32.55760000     -73.25610000
H      -43.50630000     -31.67930000     -72.64710000
H      -42.85000000     -32.55520000     -73.88360000
C      -43.51130000     -33.73280000     -72.23040000
C      -43.38430000     -35.01930000     -72.56690000
C      -43.65380000     -33.54460000     -70.79940000
H      -43.21510000     -35.39730000     -73.56740000
C      -43.55580000     -34.67650000     -70.07940000
C      -43.68810000     -32.36650000     -69.98990000
C      -43.60890000     -32.64590000     -68.65810000
S      -43.29470000     -36.06170000     -71.14970000
S      -43.52730000     -34.40440000     -68.37150000
H      -43.58780000     -31.81930000     -67.88930000
