40
Properties=species:S:1:pos:R:3 #=T CELL(abcABC):=T 1.889726e+02=T 90.00000=T Traj:=T positionsangstrom=T Step:=T 0=T Bead:=T pbc="F F F"
C      -42.81560000     -34.47220000     -68.80430000
C      -43.98690000     -34.17950000     -69.49150000
C      -44.07750000     -34.37550000     -70.88310000
C      -42.92580000     -34.67460000     -71.60530000
C      -41.72360000     -34.89270000     -70.93460000
C      -41.66080000     -34.79490000     -69.54720000
H      -42.67360000     -34.48210000     -67.74540000
H      -44.98000000     -34.26610000     -71.48720000
H      -40.88510000     -35.29110000     -71.41500000
H      -40.76130000     -34.80690000     -68.97820000
C      -42.86060000     -34.71230000     -73.08640000
H      -43.77870000     -35.15980000     -73.46330000
H      -41.94420000     -35.30280000     -73.29130000
C      -45.22330000     -33.99850000     -68.64970000
H      -46.04800000     -34.40280000     -69.25230000
H      -45.11650000     -34.65850000     -67.83680000
S      -42.73560000     -32.98080000     -73.93610000
S      -45.53690000     -32.33250000     -67.95040000
C      -43.55030000     -31.72710000     -72.80380000
H      -43.51070000     -32.12990000     -71.70990000
H      -42.92360000     -30.76900000     -72.80600000
C      -45.49220000     -31.20370000     -69.38390000
H      -44.81570000     -31.53800000     -70.13880000
H      -45.19170000     -30.16000000     -69.06600000
C      -46.85320000     -30.98310000     -70.12810000
H      -47.62780000     -30.62730000     -69.41130000
H      -46.75490000     -30.15690000     -70.87070000
C      -45.00720000     -31.34230000     -73.07830000
H      -45.09710000     -30.78820000     -74.05320000
H      -45.13520000     -30.58960000     -72.36870000
C      -46.00710000     -32.45500000     -72.97760000
C      -46.13050000     -33.29500000     -74.04160000
C      -46.93480000     -32.81770000     -71.91010000
H      -45.56520000     -33.15190000     -74.98080000
C      -47.68570000     -33.98520000     -72.22120000
C      -47.36500000     -32.26930000     -70.64560000
C      -48.23980000     -33.02160000     -69.97460000
S      -47.25460000     -34.70830000     -73.78920000
S      -48.75640000     -34.44350000     -70.89280000
H      -48.81500000     -32.62880000     -69.14800000
