40
Properties=species:S:1:pos:R:3 #=T CELL(abcABC):=T 1.889726e+02=T 90.00000=T Traj:=T positionsangstrom=T Step:=T 0=T Bead:=T pbc="F F F"
C      -45.07780000     -31.88300000     -73.32400000
C      -44.65660000     -31.20870000     -72.16160000
C      -43.45890000     -31.61540000     -71.65490000
C      -42.70250000     -32.66610000     -72.20110000
C      -43.30690000     -33.49770000     -73.18000000
C      -44.44220000     -33.04450000     -73.86140000
H      -45.99050000     -31.51150000     -73.84010000
H      -42.88780000     -31.13450000     -70.91720000
H      -42.88030000     -34.49110000     -73.36310000
H      -44.96770000     -33.61990000     -74.60710000
C      -41.40160000     -33.07630000     -71.56300000
H      -41.01300000     -32.30490000     -70.88780000
H      -40.67260000     -33.48850000     -72.30280000
C      -45.32680000     -30.00540000     -71.58310000
H      -44.74950000     -29.38600000     -70.99220000
H      -45.61600000     -29.40760000     -72.40370000
S      -41.66090000     -34.56970000     -70.38610000
S      -46.82970000     -30.43620000     -70.59350000
C      -43.25440000     -34.13510000     -69.43980000
H      -42.91910000     -33.88020000     -68.45050000
H      -43.64420000     -33.27570000     -69.92840000
C      -46.08290000     -31.48830000     -69.26840000
H      -45.74270000     -30.85060000     -68.39710000
H      -45.05480000     -31.79610000     -69.58850000
C      -46.91380000     -32.65500000     -68.91980000
H      -46.40480000     -33.36550000     -68.27580000
H      -47.72330000     -32.29640000     -68.27980000
C      -44.41510000     -35.11840000     -69.27320000
H      -45.03730000     -34.89600000     -68.38660000
H      -44.09590000     -36.19850000     -69.15330000
C      -45.34180000     -35.10490000     -70.47590000
C      -44.91710000     -35.88040000     -71.55730000
C      -46.62570000     -34.49190000     -70.71620000
H      -43.88650000     -36.35640000     -71.61470000
C      -47.14460000     -34.82560000     -71.97690000
C      -47.40480000     -33.43790000     -70.16520000
C      -48.65760000     -33.35610000     -70.69680000
S      -46.00900000     -35.83660000     -72.84900000
S      -48.77650000     -34.25890000     -72.24300000
H      -49.50970000     -32.78100000     -70.37260000
