40
Properties=species:S:1:pos:R:3 #=T CELL(abcABC):=T 1.889726e+02=T 90.00000=T Traj:=T positionsangstrom=T Step:=T 0=T Bead:=T pbc="F F F"
C      -43.37600000     -32.11240000     -72.54720000
C      -43.98640000     -33.22750000     -73.22700000
C      -45.35010000     -33.23940000     -73.49320000
C      -46.20420000     -32.21400000     -73.03210000
C      -45.61620000     -31.10660000     -72.38390000
C      -44.26060000     -31.15100000     -72.00570000
H      -42.30110000     -32.05790000     -72.28620000
H      -45.84570000     -34.11910000     -73.81270000
H      -46.32710000     -30.26580000     -71.95660000
H      -43.75770000     -30.26950000     -71.60800000
C      -47.64150000     -32.02340000     -73.49720000
H      -47.75080000     -31.84310000     -74.54460000
H      -48.03670000     -31.19810000     -72.96190000
C      -43.11450000     -34.18630000     -73.99750000
H      -43.67890000     -34.82530000     -74.68920000
H      -42.35450000     -33.73640000     -74.54540000
S      -48.84020000     -33.52490000     -73.34520000
S      -42.13170000     -35.11020000     -72.72450000
C      -49.01520000     -33.98430000     -71.52660000
H      -49.38100000     -33.04130000     -71.02650000
H      -49.77120000     -34.74440000     -71.49040000
C      -43.26630000     -36.22980000     -71.82510000
H      -42.54000000     -36.78270000     -71.16110000
H      -43.69650000     -37.02270000     -72.39370000
C      -44.46530000     -35.82010000     -71.01600000
H      -45.21500000     -35.75810000     -71.75710000
H      -44.70500000     -36.65490000     -70.29040000
C      -47.74670000     -34.56810000     -70.88250000
H      -47.13310000     -35.01120000     -71.63060000
H      -48.09390000     -35.30160000     -70.10340000
C      -46.96190000     -33.70970000     -69.95270000
C      -47.46110000     -32.62630000     -69.29180000
C      -45.52530000     -33.88460000     -69.71800000
H      -48.50700000     -32.30850000     -69.35670000
C      -45.05850000     -32.75410000     -69.04510000
C      -44.40240000     -34.53720000     -70.26720000
C      -43.22880000     -34.15380000     -69.75080000
S      -46.31660000     -31.72930000     -68.41470000
S      -43.32870000     -32.64940000     -68.79540000
H      -42.15300000     -34.39740000     -70.12910000
