40
Properties=species:S:1:pos:R:3 #=T CELL(abcABC):=T 1.889726e+02=T 90.00000=T Traj:=T positionsangstrom=T Step:=T 0=T Bead:=T pbc="F F F"
C      -42.22540000     -33.94470000     -68.97520000
C      -43.47640000     -34.28600000     -69.46890000
C      -43.69980000     -34.65340000     -70.81090000
C      -42.61880000     -34.57670000     -71.73910000
C      -41.34610000     -34.27350000     -71.19560000
C      -41.13030000     -33.89820000     -69.86500000
H      -42.03560000     -33.89550000     -67.83560000
H      -44.65580000     -34.89570000     -71.15320000
H      -40.55580000     -34.13150000     -71.84130000
H      -40.14070000     -33.72810000     -69.53930000
C      -42.99010000     -34.67900000     -73.26440000
H      -43.86040000     -35.24360000     -73.41710000
H      -42.17270000     -35.07330000     -73.83570000
C      -44.72830000     -34.27080000     -68.64470000
H      -45.61340000     -34.49570000     -69.22960000
H      -44.83550000     -34.88980000     -67.75470000
S      -43.15860000     -32.95730000     -74.11200000
S      -44.99770000     -32.53090000     -67.98550000
C      -43.92210000     -31.82500000     -72.94030000
H      -43.96860000     -32.23290000     -71.91140000
H      -43.38260000     -30.91540000     -72.93050000
C      -44.87430000     -31.55730000     -69.41850000
H      -44.28740000     -32.17830000     -70.12910000
H      -44.37770000     -30.63950000     -69.05430000
C      -46.26800000     -31.13690000     -69.93670000
H      -46.86420000     -30.58620000     -69.15970000
H      -46.10910000     -30.43570000     -70.74240000
C      -45.39230000     -31.51810000     -73.38640000
H      -45.35860000     -31.22860000     -74.42960000
H      -45.75970000     -30.60100000     -72.83550000
C      -46.44400000     -32.68610000     -73.19350000
C      -46.81900000     -33.67350000     -74.11030000
C      -47.23160000     -32.80580000     -71.95530000
H      -46.50710000     -33.74270000     -75.08730000
C      -48.10600000     -33.88600000     -71.97240000
C      -47.12100000     -32.28640000     -70.54600000
C      -48.06590000     -33.00260000     -69.73580000
S      -48.09310000     -34.70110000     -73.52490000
S      -48.91220000     -34.33570000     -70.52670000
H      -47.99540000     -32.95630000     -68.65460000
