40
Properties=species:S:1:pos:R:3 #=T CELL(abcABC):=T 1.889726e+02=T 90.00000=T Traj:=T positionsangstrom=T Step:=T 0=T Bead:=T pbc="F F F"
C      -45.09820000     -32.81890000     -75.30790000
C      -44.02350000     -33.10060000     -74.51150000
C      -43.98370000     -34.37870000     -73.86320000
C      -44.99740000     -35.30960000     -73.98910000
C      -46.14480000     -34.94720000     -74.68670000
C      -46.21320000     -33.69800000     -75.37260000
H      -45.13410000     -31.76860000     -75.67590000
H      -43.10070000     -34.78720000     -73.34500000
H      -46.99990000     -35.65710000     -74.71590000
H      -47.05800000     -33.49750000     -76.00090000
C      -44.94520000     -36.68930000     -73.38770000
H      -44.01040000     -36.72530000     -72.80390000
H      -44.82260000     -37.45250000     -74.20040000
C      -42.78870000     -32.24760000     -74.38840000
H      -42.01140000     -32.90610000     -74.68730000
H      -42.87930000     -31.37450000     -75.04650000
S      -46.40510000     -37.10930000     -72.38610000
S      -42.16380000     -31.66490000     -72.72520000
C      -46.43670000     -36.17080000     -70.82150000
H      -47.50170000     -36.18490000     -70.65160000
H      -46.03410000     -36.81860000     -70.04230000
C      -43.48430000     -30.86500000     -71.59860000
H      -43.74860000     -29.83790000     -71.91250000
H      -42.92560000     -30.90560000     -70.60640000
C      -44.67540000     -31.74640000     -71.46030000
H      -45.28380000     -31.45430000     -72.28670000
H      -44.44570000     -32.74340000     -71.60060000
C      -45.81810000     -34.76330000     -70.86850000
H      -46.28690000     -34.32580000     -71.71960000
H      -44.71680000     -34.77860000     -70.97350000
C      -46.06750000     -34.04600000     -69.57170000
C      -46.59960000     -34.70850000     -68.45160000
C      -45.96040000     -32.60300000     -69.39360000
H      -46.71850000     -35.73910000     -68.32470000
C      -46.40310000     -32.24290000     -68.10910000
C      -45.36510000     -31.51680000     -70.08510000
C      -45.54140000     -30.26760000     -69.37740000
S      -46.95010000     -33.58330000     -67.18080000
S      -46.28630000     -30.53270000     -67.80260000
H      -45.21110000     -29.26460000     -69.71450000
