40
Properties=species:S:1:pos:R:3 #=T CELL(abcABC):=T 1.889726e+02=T 90.00000=T Traj:=T positionsangstrom=T Step:=T 0=T Bead:=T pbc="F F F"
C      -42.00630000     -34.09420000     -69.27010000
C      -43.39600000     -34.18010000     -69.61500000
C      -43.69850000     -34.47480000     -70.94660000
C      -42.74630000     -34.47170000     -71.93770000
C      -41.38410000     -34.30070000     -71.60030000
C      -41.04640000     -34.08780000     -70.24650000
H      -41.75460000     -33.98140000     -68.30040000
H      -44.72090000     -34.65240000     -71.11470000
H      -40.64430000     -34.49690000     -72.40070000
H      -40.06670000     -34.04620000     -69.86500000
C      -43.18790000     -34.76820000     -73.35670000
H      -44.08500000     -35.33570000     -73.32700000
H      -42.32660000     -35.27460000     -73.84090000
C      -44.43960000     -34.11730000     -68.60050000
H      -45.37540000     -34.53100000     -68.92070000
H      -44.21580000     -34.67750000     -67.69180000
S      -43.51070000     -33.16400000     -74.33800000
S      -44.62880000     -32.35260000     -67.96430000
C      -43.96880000     -31.91450000     -72.98450000
H      -43.71350000     -32.28020000     -71.93190000
H      -43.30460000     -31.11880000     -73.29590000
C      -45.09150000     -31.37360000     -69.57980000
H      -44.50310000     -31.86230000     -70.38790000
H      -44.59850000     -30.46040000     -69.40320000
C      -46.57770000     -31.15570000     -69.80100000
H      -47.12340000     -30.89120000     -68.89060000
H      -46.64950000     -30.29540000     -70.45500000
C      -45.40190000     -31.42060000     -72.94490000
H      -45.52160000     -30.88840000     -73.87660000
H      -45.50220000     -30.64370000     -72.13080000
C      -46.44120000     -32.59140000     -72.86570000
C      -46.71870000     -33.42900000     -73.91140000
C      -47.20780000     -32.90440000     -71.62810000
H      -46.26800000     -33.37120000     -74.89640000
C      -48.02730000     -33.98170000     -71.88660000
C      -47.34670000     -32.35750000     -70.32760000
C      -48.36150000     -33.01220000     -69.59230000
S      -47.77620000     -34.78280000     -73.34860000
S      -49.00590000     -34.35850000     -70.52840000
H      -48.72820000     -32.69990000     -68.61040000
