40
Properties=species:S:1:pos:R:3 #=T CELL(abcABC):=T 1.889726e+02=T 90.00000=T Traj:=T positionsangstrom=T Step:=T 0=T Bead:=T pbc="F F F"
C      -42.02880000     -33.93510000     -69.37350000
C      -43.40820000     -34.04810000     -69.51980000
C      -43.99770000     -34.26210000     -70.79800000
C      -43.18080000     -34.36310000     -71.93500000
C      -41.75040000     -34.21490000     -71.73560000
C      -41.20930000     -34.11230000     -70.48480000
H      -41.62670000     -33.70520000     -68.41940000
H      -45.13020000     -34.29580000     -70.96400000
H      -41.15420000     -34.34860000     -72.65720000
H      -40.16190000     -34.10330000     -70.31420000
C      -43.76090000     -34.56870000     -73.28560000
H      -44.76380000     -35.05360000     -73.25300000
H      -43.05010000     -35.25860000     -73.71480000
C      -44.34310000     -33.92100000     -68.33250000
H      -45.27460000     -34.55840000     -68.49590000
H      -43.86760000     -34.28260000     -67.41090000
S      -43.86420000     -33.09280000     -74.46320000
S      -44.75500000     -32.09360000     -67.94480000
C      -44.54260000     -31.62940000     -73.44410000
H      -44.28020000     -31.84090000     -72.47070000
H      -44.14850000     -30.68980000     -73.74030000
C      -44.68890000     -31.25190000     -69.56840000
H      -43.98560000     -31.89050000     -70.11790000
H      -44.32840000     -30.20310000     -69.36690000
C      -46.06640000     -31.04200000     -70.22980000
H      -46.61940000     -30.43060000     -69.63060000
H      -45.79130000     -30.46970000     -71.16190000
C      -46.07440000     -31.42220000     -73.62770000
H      -46.25030000     -31.27140000     -74.66820000
H      -46.48070000     -30.55870000     -73.09900000
C      -46.84570000     -32.67760000     -73.15000000
C      -47.09230000     -33.72730000     -73.93090000
C      -47.10460000     -32.99620000     -71.73030000
H      -47.37930000     -33.57160000     -75.04670000
C      -47.74390000     -34.23080000     -71.61080000
C      -46.89770000     -32.36130000     -70.45250000
C      -47.41490000     -33.10240000     -69.39370000
S      -47.85500000     -35.13150000     -73.15160000
S      -47.95930000     -34.69110000     -69.94260000
H      -47.19740000     -32.97170000     -68.38020000
