40
Properties=species:S:1:pos:R:3 #=T CELL(abcABC):=T 1.889726e+02=T 90.00000=T Traj:=T positionsangstrom=T Step:=T 0=T Bead:=T pbc="F F F"
C      -42.02790000     -33.41120000     -69.56440000
C      -43.38140000     -33.78800000     -69.65160000
C      -43.87380000     -34.30390000     -70.83480000
C      -43.07210000     -34.46310000     -71.94870000
C      -41.68350000     -34.14270000     -71.85220000
C      -41.11870000     -33.63190000     -70.65080000
H      -41.62340000     -32.84200000     -68.72750000
H      -44.94720000     -34.46910000     -70.87450000
H      -40.99550000     -34.39730000     -72.57940000
H      -40.08260000     -33.35240000     -70.74700000
C      -43.62890000     -34.90570000     -73.28900000
H      -44.65520000     -35.39340000     -73.13510000
H      -42.96880000     -35.57810000     -73.75720000
C      -44.25150000     -33.44000000     -68.37750000
H      -45.19560000     -34.05820000     -68.36210000
H      -43.67810000     -33.78960000     -67.48370000
S      -43.78330000     -33.45310000     -74.47990000
S      -44.56810000     -31.62600000     -68.18540000
C      -44.38120000     -32.02770000     -73.46130000
H      -44.01930000     -32.17920000     -72.44960000
H      -43.80310000     -31.23270000     -73.92620000
C      -44.87540000     -31.00290000     -69.89540000
H      -44.22510000     -31.53000000     -70.55320000
H      -44.42040000     -29.98800000     -69.92680000
C      -46.33600000     -31.02490000     -70.24990000
H      -46.96060000     -30.36330000     -69.57600000
H      -46.38170000     -30.56550000     -71.22980000
C      -45.88770000     -31.79680000     -73.57890000
H      -46.14110000     -31.69910000     -74.67590000
H      -46.00580000     -30.88360000     -73.09310000
C      -46.67260000     -32.99830000     -73.01080000
C      -47.10120000     -34.04390000     -73.81040000
C      -47.01640000     -33.17210000     -71.62300000
H      -47.13160000     -34.05890000     -74.87440000
C      -47.81960000     -34.37440000     -71.46250000
C      -46.95110000     -32.38960000     -70.39010000
C      -47.66790000     -33.02870000     -69.35560000
S      -48.01800000     -35.27660000     -72.87630000
S      -48.23580000     -34.63580000     -69.76740000
H      -47.60280000     -32.73700000     -68.27320000
