40
Properties=species:S:1:pos:R:3 #=T CELL(abcABC):=T 1.889726e+02=T 90.00000=T Traj:=T positionsangstrom=T Step:=T 0=T Bead:=T pbc="F F F"
C      -42.00250000     -34.01920000     -69.39140000
C      -43.38730000     -34.01540000     -69.56640000
C      -43.88070000     -34.19170000     -70.90470000
C      -43.04500000     -34.23530000     -72.00940000
C      -41.65960000     -34.25670000     -71.79830000
C      -41.13640000     -34.08340000     -70.45450000
H      -41.63470000     -34.14450000     -68.42160000
H      -45.01620000     -34.39390000     -71.03240000
H      -40.96840000     -34.18340000     -72.61080000
H      -40.01160000     -34.01480000     -70.37170000
C      -43.69450000     -34.55470000     -73.30910000
H      -44.77360000     -34.78630000     -73.24270000
H      -43.24670000     -35.26920000     -73.95550000
C      -44.38990000     -34.01620000     -68.43500000
H      -45.25470000     -34.57600000     -68.69810000
H      -43.94460000     -34.43620000     -67.55770000
S      -43.71840000     -33.09130000     -74.52140000
S      -44.74910000     -32.28950000     -67.90850000
C      -44.37740000     -31.72350000     -73.42970000
H      -44.05640000     -31.95410000     -72.40980000
H      -43.78270000     -30.79050000     -73.75020000
C      -44.86220000     -31.27410000     -69.50860000
H      -44.30090000     -31.68050000     -70.31210000
H      -44.44280000     -30.28850000     -69.30490000
C      -46.25490000     -31.01710000     -69.99380000
H      -46.76080000     -30.52160000     -69.12860000
H      -46.27540000     -30.32320000     -70.81730000
C      -45.92180000     -31.47030000     -73.61350000
H      -46.01610000     -31.34400000     -74.76550000
H      -46.25750000     -30.52490000     -73.18490000
C      -46.75050000     -32.62180000     -73.09830000
C      -47.16540000     -33.53770000     -73.93900000
C      -47.05390000     -33.01270000     -71.67130000
H      -47.12430000     -33.52810000     -75.13040000
C      -47.72130000     -34.28380000     -71.60060000
C      -46.94750000     -32.35940000     -70.37240000
C      -47.45430000     -33.15540000     -69.35790000
S      -47.98390000     -34.99940000     -73.19400000
S      -48.15310000     -34.63470000     -69.93180000
H      -47.48800000     -33.00570000     -68.29780000
