40
Properties=species:S:1:pos:R:3 #=T CELL(abcABC):=T 1.889726e+02=T 90.00000=T Traj:=T positionsangstrom=T Step:=T 0=T Bead:=T pbc="F F F"
C      -41.70250000     -33.30190000     -69.65410000
C      -43.09330000     -33.63130000     -69.72810000
C      -43.59680000     -34.26970000     -70.85600000
C      -42.78050000     -34.40170000     -71.99730000
C      -41.41500000     -34.22320000     -71.82220000
C      -40.81850000     -33.66720000     -70.68350000
H      -41.25380000     -33.00260000     -68.73950000
H      -44.76370000     -34.36310000     -70.87680000
H      -40.87020000     -34.38140000     -72.82990000
H      -39.73140000     -33.62070000     -70.64430000
C      -43.32000000     -35.01730000     -73.28890000
H      -44.07340000     -35.73470000     -73.12910000
H      -42.51120000     -35.47730000     -73.91700000
C      -43.98040000     -33.40350000     -68.55460000
H      -45.01590000     -33.88970000     -68.68260000
H      -43.52810000     -33.59890000     -67.56720000
S      -44.04320000     -33.78060000     -74.50230000
S      -44.29240000     -31.51800000     -68.31190000
C      -44.34390000     -32.26160000     -73.45170000
H      -44.01270000     -32.36970000     -72.39540000
H      -43.73470000     -31.43310000     -73.84580000
C      -45.03410000     -30.95380000     -69.90590000
H      -44.47600000     -31.55770000     -70.65010000
H      -44.73850000     -29.91370000     -69.90770000
C      -46.65730000     -30.97720000     -70.09810000
H      -47.15240000     -30.59230000     -69.25240000
H      -46.88510000     -30.37800000     -70.96730000
C      -45.88880000     -31.88110000     -73.42990000
H      -46.24540000     -31.63840000     -74.41970000
H      -45.93470000     -30.91150000     -72.84790000
C      -46.76740000     -32.90830000     -72.84360000
C      -47.08760000     -33.93220000     -73.64020000
C      -47.32780000     -33.11290000     -71.54990000
H      -46.65790000     -34.20620000     -74.64340000
C      -47.99010000     -34.34830000     -71.43850000
C      -47.22020000     -32.33070000     -70.31010000
C      -47.80760000     -33.05820000     -69.28640000
S      -48.16430000     -35.17920000     -72.91790000
S      -48.48630000     -34.59690000     -69.77200000
H      -48.03200000     -32.56080000     -68.30140000
