40
Properties=species:S:1:pos:R:3 #=T CELL(abcABC):=T 1.889726e+02=T 90.00000=T Traj:=T positionsangstrom=T Step:=T 0=T Bead:=T pbc="F F F"
C      -41.62530000     -33.39090000     -69.88670000
C      -42.97870000     -33.67650000     -69.69070000
C      -43.66550000     -34.18910000     -70.78910000
C      -43.06680000     -34.58440000     -72.00240000
C      -41.71260000     -34.28790000     -72.16280000
C      -40.95550000     -33.69950000     -71.12450000
H      -41.08460000     -33.02510000     -69.04840000
H      -44.70780000     -34.40930000     -70.73830000
H      -41.19930000     -34.45330000     -73.07350000
H      -39.84610000     -33.53730000     -71.13940000
C      -43.81540000     -35.06220000     -73.20090000
H      -44.89910000     -35.23970000     -73.00760000
H      -43.38640000     -35.94830000     -73.64240000
C      -43.74450000     -33.39540000     -68.38590000
H      -44.70640000     -33.86850000     -68.32570000
H      -43.11410000     -33.61930000     -67.50540000
S      -43.72710000     -33.73060000     -74.50790000
S      -44.20240000     -31.55400000     -68.22880000
C      -44.39440000     -32.23380000     -73.63790000
H      -43.82940000     -32.21370000     -72.67780000
H      -43.82380000     -31.49120000     -74.21520000
C      -44.80000000     -31.15590000     -69.90230000
H      -44.28080000     -31.72270000     -70.64300000
H      -44.54930000     -30.06970000     -70.18320000
C      -46.36040000     -31.13570000     -70.12270000
H      -46.64720000     -30.58270000     -69.23970000
H      -46.60560000     -30.51440000     -71.01900000
C      -45.91010000     -31.93880000     -73.52440000
H      -46.36440000     -31.68910000     -74.43600000
H      -45.96700000     -31.00030000     -72.93440000
C      -46.71500000     -33.01890000     -72.86810000
C      -47.26030000     -33.95730000     -73.68240000
C      -47.13530000     -33.13840000     -71.47300000
H      -47.06750000     -34.15670000     -74.74310000
C      -47.96280000     -34.25260000     -71.26920000
C      -47.07770000     -32.41560000     -70.25940000
C      -47.69760000     -33.01780000     -69.15360000
S      -48.27580000     -35.10510000     -72.78850000
S      -48.75580000     -34.34560000     -69.71670000
H      -47.79680000     -32.51300000     -68.27320000
