40
Properties=species:S:1:pos:R:3 #=T CELL(abcABC):=T 1.889726e+02=T 90.00000=T Traj:=T positionsangstrom=T Step:=T 0=T Bead:=T pbc="F F F"
C      -41.90860000     -33.66720000     -70.01700000
C      -43.23900000     -33.91840000     -69.85810000
C      -43.98000000     -34.32510000     -71.01240000
C      -43.33160000     -34.58850000     -72.21950000
C      -41.93480000     -34.43190000     -72.32730000
C      -41.23280000     -33.97550000     -71.19730000
H      -41.31350000     -33.21850000     -69.19920000
H      -45.10230000     -34.61850000     -70.82180000
H      -41.33260000     -34.65730000     -73.21680000
H      -40.20520000     -33.85580000     -71.19610000
C      -44.07500000     -35.07960000     -73.46110000
H      -45.07010000     -35.42350000     -73.13860000
H      -43.61740000     -36.06390000     -73.83510000
C      -43.89950000     -33.69090000     -68.54510000
H      -44.88360000     -34.12430000     -68.58760000
H      -43.24390000     -34.16050000     -67.78790000
S      -44.11730000     -33.75510000     -74.74200000
S      -43.96670000     -31.89060000     -68.01140000
C      -44.56460000     -32.17720000     -73.77190000
H      -44.03450000     -32.27840000     -72.87110000
H      -44.04240000     -31.47130000     -74.36680000
C      -44.44440000     -31.03040000     -69.55540000
H      -43.85730000     -31.49830000     -70.37870000
H      -44.06500000     -30.00720000     -69.43190000
C      -45.97130000     -30.89820000     -70.00940000
H      -46.47800000     -30.28960000     -69.21560000
H      -45.87460000     -30.27220000     -70.88380000
C      -46.06810000     -31.80400000     -73.66090000
H      -46.55150000     -31.70780000     -74.65510000
H      -46.06020000     -30.80560000     -73.39950000
C      -46.94180000     -32.78170000     -72.88710000
C      -47.57170000     -33.73680000     -73.65280000
C      -47.09890000     -32.94220000     -71.47370000
H      -47.53660000     -33.80230000     -74.74550000
C      -47.84870000     -34.06650000     -71.13330000
C      -46.65660000     -32.23600000     -70.26200000
C      -47.11380000     -32.89120000     -69.15290000
S      -48.43440000     -34.83830000     -72.57860000
S      -48.05900000     -34.34140000     -69.47830000
H      -46.85600000     -32.62430000     -68.19900000
