40
Properties=species:S:1:pos:R:3 #=T CELL(abcABC):=T 1.889726e+02=T 90.00000=T Traj:=T positionsangstrom=T Step:=T 0=T Bead:=T pbc="F F F"
C      -41.75960000     -34.62390000     -70.51160000
C      -43.17990000     -34.50460000     -70.34230000
C      -44.01280000     -34.49440000     -71.51030000
C      -43.43770000     -34.43130000     -72.80740000
C      -42.02800000     -34.49690000     -72.93440000
C      -41.20720000     -34.57540000     -71.79150000
H      -41.07950000     -34.66350000     -69.71280000
H      -45.10900000     -34.32930000     -71.42250000
H      -41.52090000     -34.64990000     -73.84480000
H      -40.15750000     -34.83430000     -71.75610000
C      -44.39130000     -34.42140000     -73.94360000
H      -45.41730000     -34.70110000     -73.69740000
H      -44.08500000     -35.05330000     -74.79290000
C      -43.71710000     -34.13120000     -68.96070000
H      -44.71260000     -34.43850000     -68.82220000
H      -43.10990000     -34.69850000     -68.29640000
S      -44.41750000     -32.78230000     -74.74630000
S      -43.48460000     -32.33030000     -68.47300000
C      -44.72380000     -31.55710000     -73.39550000
H      -44.11970000     -31.90360000     -72.56320000
H      -44.39380000     -30.52510000     -73.68770000
C      -44.25680000     -31.48400000     -69.92820000
H      -44.13390000     -32.20180000     -70.72170000
H      -43.52170000     -30.60850000     -70.08640000
C      -45.79020000     -31.05370000     -69.62990000
H      -45.73890000     -30.74020000     -68.59910000
H      -46.13990000     -30.29800000     -70.25930000
C      -46.20290000     -31.40200000     -72.98190000
H      -46.73320000     -31.21070000     -73.93380000
H      -46.15980000     -30.50750000     -72.33310000
C      -46.95770000     -32.49530000     -72.35400000
C      -47.56760000     -33.46430000     -73.16240000
C      -47.20270000     -32.84570000     -70.99820000
H      -47.45110000     -33.48890000     -74.24980000
C      -47.95450000     -34.05570000     -70.81610000
C      -46.74230000     -32.27090000     -69.75370000
C      -47.12370000     -33.06810000     -68.67660000
S      -48.34540000     -34.86850000     -72.27860000
S      -48.18550000     -34.38880000     -69.18370000
H      -46.66830000     -32.99560000     -67.65610000
