40
Properties=species:S:1:pos:R:3 #=T CELL(abcABC):=T 1.889726e+02=T 90.00000=T Traj:=T positionsangstrom=T Step:=T 0=T Bead:=T pbc="F F F"
C      -41.57430000     -34.08210000     -70.61840000
C      -42.97290000     -34.17510000     -70.36450000
C      -43.77120000     -34.39640000     -71.42750000
C      -43.25650000     -34.56730000     -72.74840000
C      -41.86230000     -34.57950000     -72.98030000
C      -41.01450000     -34.39840000     -71.87940000
H      -40.90690000     -33.97500000     -69.78260000
H      -44.87950000     -34.52200000     -71.26050000
H      -41.45550000     -34.71690000     -74.03050000
H      -39.93010000     -34.29150000     -71.99030000
C      -44.20870000     -34.76080000     -73.86540000
H      -45.22100000     -35.02960000     -73.52740000
H      -43.86660000     -35.40420000     -74.68640000
C      -43.60850000     -34.04020000     -69.00770000
H      -44.57470000     -34.58110000     -69.01950000
H      -42.87550000     -34.57560000     -68.31310000
S      -44.49080000     -33.12830000     -74.87270000
S      -43.67760000     -32.31440000     -68.27380000
C      -44.65790000     -31.83610000     -73.46070000
H      -44.06200000     -32.14450000     -72.66370000
H      -44.30470000     -30.91530000     -73.92710000
C      -44.34970000     -31.21380000     -69.65040000
H      -43.94160000     -31.65660000     -70.55230000
H      -43.96390000     -30.22420000     -69.49370000
C      -45.81480000     -31.05260000     -69.69650000
H      -46.12580000     -30.52890000     -68.77510000
H      -46.06500000     -30.39250000     -70.59120000
C      -46.10960000     -31.59160000     -73.03200000
H      -46.62160000     -31.19700000     -73.87470000
H      -45.95620000     -30.89570000     -72.22680000
C      -46.94180000     -32.74500000     -72.50270000
C      -47.66490000     -33.62830000     -73.24740000
C      -47.08510000     -32.92680000     -71.07860000
H      -47.54020000     -33.73080000     -74.29960000
C      -47.99850000     -33.92890000     -70.84370000
C      -46.67920000     -32.29950000     -69.79020000
C      -47.24370000     -32.90450000     -68.67410000
S      -48.68880000     -34.65650000     -72.22020000
S      -48.14160000     -34.37650000     -69.16860000
H      -47.14120000     -32.66700000     -67.67130000
