40
Properties=species:S:1:pos:R:3 #=T CELL(abcABC):=T 1.889726e+02=T 90.00000=T Traj:=T positionsangstrom=T Step:=T 0=T Bead:=T pbc="F F F"
C      -41.65320000     -33.90670000     -70.14610000
C      -43.00850000     -34.17620000     -69.90580000
C      -43.89640000     -34.47230000     -70.98950000
C      -43.35740000     -34.56530000     -72.27130000
C      -41.98770000     -34.36830000     -72.49120000
C      -41.15470000     -33.99820000     -71.45040000
H      -41.00990000     -33.79290000     -69.25510000
H      -44.92730000     -34.70270000     -71.00840000
H      -41.62400000     -34.43030000     -73.48640000
H      -40.13280000     -33.69250000     -71.74700000
C      -44.20270000     -34.88500000     -73.43550000
H      -45.22510000     -35.20620000     -73.19160000
H      -43.72670000     -35.65490000     -74.09650000
C      -43.50260000     -33.93130000     -68.48100000
H      -44.47500000     -34.46430000     -68.17060000
H      -42.79820000     -34.25780000     -67.67840000
S      -44.45010000     -33.50870000     -74.68490000
S      -43.77980000     -32.10240000     -68.25970000
C      -44.62440000     -32.03080000     -73.69310000
H      -44.04740000     -32.19150000     -72.80140000
H      -44.09450000     -31.27150000     -74.24800000
C      -44.29860000     -31.35520000     -69.94000000
H      -44.06350000     -32.02630000     -70.75810000
H      -43.69030000     -30.46640000     -70.02270000
C      -45.81010000     -31.10410000     -69.99910000
H      -46.11010000     -30.46890000     -69.09230000
H      -45.98390000     -30.42030000     -70.90550000
C      -46.08210000     -31.57330000     -73.45140000
H      -46.50920000     -31.44460000     -74.40400000
H      -46.06440000     -30.65550000     -72.83190000
C      -46.87600000     -32.68070000     -72.72750000
C      -47.62010000     -33.54430000     -73.49610000
C      -47.02290000     -32.96890000     -71.29010000
H      -47.71300000     -33.70420000     -74.55500000
C      -47.87360000     -34.05190000     -71.05360000
C      -46.71560000     -32.26220000     -70.08130000
C      -47.33450000     -32.80500000     -68.99960000
S      -48.37460000     -34.81660000     -72.53690000
S      -48.31320000     -34.22160000     -69.42990000
H      -47.34940000     -32.40550000     -67.96910000
