40
Properties=species:S:1:pos:R:3 #=T CELL(abcABC):=T 1.889726e+02=T 90.00000=T Traj:=T positionsangstrom=T Step:=T 0=T Bead:=T pbc="F F F"
C      -41.65570000     -34.25640000     -70.62090000
C      -43.03460000     -34.22270000     -70.37820000
C      -43.88900000     -34.33410000     -71.50020000
C      -43.34330000     -34.46910000     -72.76550000
C      -41.91160000     -34.42640000     -73.01410000
C      -41.11070000     -34.43550000     -71.91180000
H      -40.95490000     -34.14470000     -69.80490000
H      -44.93150000     -34.19800000     -71.46180000
H      -41.46490000     -34.74600000     -73.99010000
H      -39.98010000     -34.49180000     -72.05950000
C      -44.21920000     -34.65080000     -73.99180000
H      -45.18970000     -34.99220000     -73.63930000
H      -43.88670000     -35.42960000     -74.68440000
C      -43.59480000     -34.04270000     -69.00960000
H      -44.59730000     -34.34780000     -69.05840000
H      -43.22320000     -34.67860000     -68.26980000
S      -44.40090000     -32.98920000     -74.85280000
S      -43.53100000     -32.36620000     -68.26780000
C      -44.77930000     -31.82170000     -73.50710000
H      -44.16070000     -32.13210000     -72.63600000
H      -44.33070000     -30.85620000     -73.82430000
C      -44.32950000     -31.26820000     -69.58250000
H      -44.04070000     -31.56510000     -70.66070000
H      -43.90150000     -30.27220000     -69.48120000
C      -45.82670000     -31.15460000     -69.48580000
H      -46.08170000     -30.71150000     -68.54690000
H      -46.03580000     -30.39740000     -70.16160000
C      -46.26070000     -31.49090000     -73.14300000
H      -46.72100000     -31.24890000     -74.12900000
H      -46.36750000     -30.52070000     -72.61060000
C      -47.08260000     -32.57770000     -72.45660000
C      -47.75290000     -33.52260000     -73.23010000
C      -47.21200000     -32.88800000     -71.03680000
H      -47.74340000     -33.69070000     -74.30260000
C      -48.00460000     -33.99590000     -70.83440000
C      -46.60880000     -32.41800000     -69.76730000
C      -47.05960000     -33.17610000     -68.68630000
S      -48.49560000     -34.76880000     -72.26810000
S      -48.21250000     -34.34870000     -69.11650000
H      -46.96670000     -32.82250000     -67.67560000
