40
Properties=species:S:1:pos:R:3 #=T CELL(abcABC):=T 1.889726e+02=T 90.00000=T Traj:=T positionsangstrom=T Step:=T 0=T Bead:=T pbc="F F F"
C      -41.69640000     -34.31680000     -70.50390000
C      -43.09740000     -34.39900000     -70.30650000
C      -43.92390000     -34.41420000     -71.44480000
C      -43.35420000     -34.47600000     -72.73220000
C      -42.00020000     -34.66020000     -72.89180000
C      -41.20680000     -34.50420000     -71.75520000
H      -40.97910000     -34.15220000     -69.68850000
H      -44.93480000     -34.51430000     -71.26560000
H      -41.54140000     -34.55150000     -73.87970000
H      -40.08330000     -34.49370000     -71.92240000
C      -44.29640000     -34.42340000     -73.97920000
H      -45.29900000     -34.80750000     -73.68400000
H      -43.85590000     -35.00990000     -74.80700000
C      -43.71170000     -34.21940000     -68.95910000
H      -44.83960000     -34.40460000     -69.03890000
H      -43.18650000     -34.78630000     -68.11240000
S      -44.52300000     -32.77750000     -74.78200000
S      -43.45170000     -32.39660000     -68.45600000
C      -44.82350000     -31.55440000     -73.44530000
H      -44.11700000     -31.87340000     -72.67040000
H      -44.46270000     -30.62880000     -73.80490000
C      -44.28980000     -31.49720000     -69.83770000
H      -44.19750000     -32.03030000     -70.73910000
H      -43.71710000     -30.57310000     -69.96830000
C      -45.79270000     -31.10340000     -69.66940000
H      -46.01770000     -30.58330000     -68.64160000
H      -46.07500000     -30.35310000     -70.45680000
C      -46.25740000     -31.44770000     -72.99050000
H      -46.81280000     -31.21050000     -73.86840000
H      -46.43070000     -30.55920000     -72.41740000
C      -46.91110000     -32.62790000     -72.37240000
C      -47.55480000     -33.56110000     -73.19130000
C      -47.08340000     -32.96920000     -71.03000000
H      -47.79190000     -33.47160000     -74.25740000
C      -47.73360000     -34.20260000     -70.83380000
C      -46.64960000     -32.32580000     -69.81040000
C      -47.21820000     -32.94300000     -68.69970000
S      -48.52530000     -34.74000000     -72.33330000
S      -48.14450000     -34.39440000     -69.11370000
H      -46.98290000     -32.58370000     -67.63860000
