40
Properties=species:S:1:pos:R:3 #=T CELL(abcABC):=T 1.889726e+02=T 90.00000=T Traj:=T positionsangstrom=T Step:=T 0=T Bead:=T pbc="F F F"
C      -41.81210000     -34.82760000     -71.26190000
C      -43.15300000     -34.86410000     -70.91920000
C      -44.18510000     -34.64420000     -71.86460000
C      -43.84860000     -34.29260000     -73.11840000
C      -42.50250000     -34.09900000     -73.45050000
C      -41.51210000     -34.37890000     -72.51860000
H      -41.00590000     -35.09790000     -70.61950000
H      -45.21590000     -34.86720000     -71.65720000
H      -42.18910000     -33.65450000     -74.36610000
H      -40.50760000     -34.15860000     -72.76690000
C      -44.89480000     -34.00950000     -74.11920000
H      -45.89430000     -34.37250000     -73.64610000
H      -44.78880000     -34.64210000     -75.04250000
C      -43.47720000     -34.97970000     -69.41170000
H      -44.56390000     -35.37900000     -69.27300000
H      -42.80060000     -35.65560000     -68.89580000
S      -44.98160000     -32.28270000     -74.69040000
S      -43.30430000     -33.47330000     -68.37330000
C      -44.74430000     -31.31770000     -73.15570000
H      -44.13560000     -31.81570000     -72.41600000
H      -44.21520000     -30.47430000     -73.49300000
C      -43.82290000     -32.03760000     -69.36900000
H      -43.67090000     -32.13890000     -70.41460000
H      -43.15120000     -31.17340000     -69.08330000
C      -45.34000000     -31.61660000     -68.99800000
H      -45.46730000     -31.42390000     -67.91560000
H      -45.67820000     -30.61730000     -69.35550000
C      -46.01330000     -30.80680000     -72.31780000
H      -46.62760000     -30.04910000     -72.87070000
H      -45.52620000     -30.35470000     -71.47770000
C      -46.93030000     -31.95270000     -71.88530000
C      -47.85280000     -32.37580000     -72.77690000
C      -46.80150000     -32.80660000     -70.75580000
H      -48.10810000     -31.89830000     -73.69810000
C      -47.72850000     -33.84870000     -70.78450000
C      -46.22130000     -32.72420000     -69.43070000
C      -46.59100000     -33.65540000     -68.54020000
S      -48.64450000     -33.90540000     -72.31910000
S      -47.82280000     -34.77120000     -69.29330000
H      -46.34290000     -33.72840000     -67.47770000
