40
Properties=species:S:1:pos:R:3 #=T CELL(abcABC):=T 1.889726e+02=T 90.00000=T Traj:=T positionsangstrom=T Step:=T 0=T Bead:=T pbc="F F F"
C      -41.73960000     -34.73560000     -70.67170000
C      -43.11600000     -34.60460000     -70.38700000
C      -44.03350000     -34.46250000     -71.42040000
C      -43.61910000     -34.48410000     -72.79680000
C      -42.24570000     -34.61010000     -73.07920000
C      -41.31450000     -34.78830000     -72.01830000
H      -41.01650000     -34.90520000     -69.90070000
H      -45.06240000     -34.12450000     -71.30000000
H      -41.98150000     -34.62600000     -74.07700000
H      -40.30920000     -34.95210000     -72.21970000
C      -44.57470000     -34.40230000     -73.96850000
H      -45.57150000     -34.70090000     -73.73390000
H      -44.24140000     -34.94010000     -74.78190000
C      -43.71700000     -34.50820000     -68.98020000
H      -44.78520000     -34.58670000     -69.02990000
H      -43.25670000     -35.23450000     -68.26770000
S      -44.55340000     -32.63530000     -74.67210000
S      -43.32730000     -32.83720000     -68.19990000
C      -44.72270000     -31.51620000     -73.22090000
H      -44.22240000     -31.79980000     -72.28060000
H      -44.16190000     -30.60380000     -73.62600000
C      -43.85940000     -31.69570000     -69.51160000
H      -43.52720000     -32.10450000     -70.39500000
H      -43.30050000     -30.73550000     -69.41710000
C      -45.32960000     -31.43370000     -69.56440000
H      -45.69460000     -30.96050000     -68.67590000
H      -45.40680000     -30.67240000     -70.32680000
C      -46.18600000     -31.17420000     -72.92430000
H      -46.62990000     -30.72130000     -73.81590000
H      -46.28970000     -30.41730000     -72.08780000
C      -47.01940000     -32.35380000     -72.46820000
C      -47.79550000     -33.11620000     -73.31440000
C      -47.08670000     -32.77480000     -71.06340000
H      -48.04360000     -32.89970000     -74.37130000
C      -48.05240000     -33.78860000     -70.91040000
C      -46.31770000     -32.51960000     -69.83410000
C      -46.87390000     -33.15060000     -68.76970000
S      -48.66780000     -34.34280000     -72.43370000
S      -48.13770000     -34.26670000     -69.23810000
H      -46.47190000     -33.16760000     -67.68040000
