40
Properties=species:S:1:pos:R:3 #=T CELL(abcABC):=T 1.889726e+02=T 90.00000=T Traj:=T positionsangstrom=T Step:=T 0=T Bead:=T pbc="F F F"
C      -41.80000000     -34.61100000     -71.16920000
C      -43.14150000     -34.64560000     -70.75950000
C      -44.12390000     -34.49290000     -71.75570000
C      -43.78490000     -34.29050000     -73.07790000
C      -42.44610000     -34.32660000     -73.48650000
C      -41.40980000     -34.42070000     -72.50550000
H      -40.95180000     -34.74400000     -70.50310000
H      -45.12410000     -34.33390000     -71.42460000
H      -42.20470000     -34.28440000     -74.49170000
H      -40.44000000     -34.55600000     -72.87210000
C      -44.88400000     -34.07550000     -74.07440000
H      -45.86230000     -34.22520000     -73.69640000
H      -44.79080000     -34.70320000     -74.87550000
C      -43.55540000     -34.96820000     -69.33880000
H      -44.57040000     -35.21520000     -69.30200000
H      -42.88300000     -35.63340000     -68.78050000
S      -44.88490000     -32.32890000     -74.73970000
S      -43.27190000     -33.43940000     -68.20970000
C      -44.74200000     -31.39740000     -73.16180000
H      -44.02200000     -31.84020000     -72.40550000
H      -44.17240000     -30.49470000     -73.51420000
C      -43.78500000     -32.05260000     -69.33800000
H      -43.57520000     -32.28470000     -70.26870000
H      -43.04360000     -31.27130000     -68.98870000
C      -45.25900000     -31.54970000     -69.20020000
H      -45.43570000     -31.18470000     -68.15970000
H      -45.26300000     -30.70230000     -69.87640000
C      -46.03660000     -30.93130000     -72.51840000
H      -46.70930000     -30.38480000     -73.20440000
H      -45.76460000     -30.24260000     -71.71300000
C      -46.95300000     -32.06350000     -72.06610000
C      -47.84060000     -32.66570000     -72.92320000
C      -46.96600000     -32.68710000     -70.78770000
H      -47.87300000     -32.41340000     -73.99710000
C      -47.87710000     -33.80470000     -70.74110000
C      -46.28460000     -32.60350000     -69.52740000
C      -46.59170000     -33.61460000     -68.67390000
S      -48.89380000     -33.91880000     -72.17330000
S      -47.71310000     -34.73530000     -69.35460000
H      -46.27240000     -33.74070000     -67.62680000
