40
Properties=species:S:1:pos:R:3 #=T CELL(abcABC):=T 1.889726e+02=T 90.00000=T Traj:=T positionsangstrom=T Step:=T 0=T Bead:=T pbc="F F F"
C      -41.93660000     -34.70720000     -71.36300000
C      -43.25550000     -34.84280000     -70.98760000
C      -44.26310000     -34.60420000     -71.90460000
C      -43.90180000     -34.24190000     -73.22950000
C      -42.53920000     -34.04400000     -73.55220000
C      -41.58160000     -34.32050000     -72.62810000
H      -41.10830000     -34.99120000     -70.71900000
H      -45.29480000     -34.92490000     -71.75250000
H      -42.32120000     -33.82380000     -74.60450000
H      -40.51030000     -34.25890000     -72.98610000
C      -44.96340000     -33.94600000     -74.21800000
H      -46.01190000     -34.21010000     -73.95640000
H      -44.74610000     -34.39930000     -75.21560000
C      -43.61050000     -35.09730000     -69.58940000
H      -44.62190000     -35.09930000     -69.38140000
H      -43.12470000     -36.00160000     -69.21380000
S      -44.98310000     -32.10100000     -74.63080000
S      -42.94990000     -33.71670000     -68.40890000
C      -44.65040000     -31.25730000     -72.87420000
H      -44.02770000     -31.96720000     -72.35080000
H      -43.97270000     -30.39420000     -73.06950000
C      -43.69420000     -32.15300000     -69.13500000
H      -43.41290000     -32.21110000     -70.20800000
H      -43.29630000     -31.37740000     -68.64430000
C      -45.12030000     -31.87530000     -68.88220000
H      -45.24720000     -31.69230000     -67.78270000
H      -45.42890000     -30.91190000     -69.35380000
C      -45.96320000     -30.74730000     -72.19240000
H      -46.45510000     -29.97930000     -72.78560000
H      -45.64230000     -30.26120000     -71.20660000
C      -46.81650000     -31.93540000     -71.90150000
C      -47.82520000     -32.29920000     -72.75050000
C      -46.84150000     -32.79850000     -70.69810000
H      -48.13190000     -31.89420000     -73.68230000
C      -47.89380000     -33.71440000     -70.76030000
C      -46.17330000     -32.84050000     -69.40790000
C      -46.68670000     -33.81470000     -68.56400000
S      -48.69500000     -33.76410000     -72.28260000
S      -48.02160000     -34.82400000     -69.36980000
H      -46.42680000     -33.93280000     -67.51480000
