40
Properties=species:S:1:pos:R:3 #=T CELL(abcABC):=T 1.889726e+02=T 90.00000=T Traj:=T positionsangstrom=T Step:=T 0=T Bead:=T pbc="F F F"
C      -47.30110000     -33.29100000     -67.77400000
C      -45.88720000     -33.28490000     -67.73290000
C      -45.17480000     -32.19560000     -68.22190000
C      -45.87530000     -31.18970000     -68.85090000
C      -47.29830000     -31.19660000     -68.87230000
C      -48.01930000     -32.22800000     -68.36870000
H      -47.72230000     -34.21870000     -67.40140000
H      -44.06680000     -32.15820000     -68.05330000
H      -47.75620000     -30.32640000     -69.38290000
H      -49.05380000     -32.10090000     -68.24890000
C      -45.13900000     -29.96100000     -69.44230000
H      -44.08090000     -30.12110000     -69.20980000
H      -45.52920000     -29.03110000     -69.01550000
C      -45.19980000     -34.56200000     -67.21930000
H      -44.12140000     -34.41700000     -67.15840000
H      -45.50670000     -34.91240000     -66.28500000
S      -45.60480000     -29.63790000     -71.22280000
S      -45.50350000     -35.97850000     -68.41290000
C      -45.64290000     -31.16970000     -72.19040000
H      -46.43510000     -31.75010000     -71.64480000
H      -45.82240000     -30.92790000     -73.20030000
C      -44.80120000     -35.28420000     -69.96460000
H      -44.32470000     -36.11340000     -70.46420000
H      -43.94380000     -34.64550000     -69.64880000
C      -45.83720000     -34.57800000     -70.91810000
H      -46.78220000     -34.85940000     -70.53250000
H      -45.79020000     -33.48370000     -70.69930000
C      -44.32640000     -31.86980000     -72.13420000
H      -44.18460000     -32.44030000     -71.23280000
H      -43.50020000     -31.16640000     -72.17070000
C      -44.20500000     -32.76230000     -73.32740000
C      -43.54260000     -32.38680000     -74.51270000
C      -44.74190000     -34.08460000     -73.33790000
H      -42.86940000     -31.56420000     -74.73020000
C      -44.48850000     -34.77340000     -74.51440000
C      -45.58350000     -34.85470000     -72.39120000
C      -45.92620000     -36.05610000     -72.98530000
S      -43.51090000     -33.77380000     -75.63160000
S      -45.23360000     -36.37140000     -74.59190000
H      -46.56340000     -36.80330000     -72.52960000
