40
Properties=species:S:1:pos:R:3 #=T CELL(abcABC):=T 1.889726e+02=T 90.00000=T Traj:=T positionsangstrom=T Step:=T 0=T Bead:=T pbc="F F F"
C      -49.09780000     -32.40420000     -71.58180000
C      -48.06370000     -32.93770000     -70.86910000
C      -47.09350000     -33.71030000     -71.52160000
C      -47.21670000     -33.99830000     -72.91310000
C      -48.36000000     -33.51950000     -73.59150000
C      -49.29690000     -32.76470000     -72.92990000
H      -49.93160000     -31.89040000     -71.10040000
H      -46.14680000     -34.06260000     -70.91560000
H      -48.64760000     -33.55630000     -74.64730000
H      -50.17880000     -32.40590000     -73.38230000
C      -46.32720000     -34.98000000     -73.54720000
H      -46.81480000     -35.72440000     -74.19600000
H      -45.69800000     -35.43690000     -72.80540000
C      -47.79690000     -32.54380000     -69.43220000
H      -48.72700000     -32.35800000     -68.82710000
H      -47.25060000     -33.36090000     -68.92490000
S      -45.16050000     -34.18780000     -74.78510000
S      -46.82570000     -30.95210000     -69.20290000
C      -44.45840000     -32.67210000     -73.91290000
H      -44.30470000     -31.91890000     -74.69480000
H      -45.08720000     -32.24290000     -73.11770000
C      -45.80030000     -30.71250000     -70.71030000
H      -46.01250000     -29.69470000     -71.04830000
H      -46.30640000     -31.40900000     -71.43130000
C      -44.25510000     -30.99830000     -70.58190000
H      -43.80740000     -30.98600000     -71.61540000
H      -43.86420000     -30.11390000     -70.02090000
C      -43.06800000     -32.94910000     -73.24880000
H      -42.83490000     -31.96070000     -72.83660000
H      -42.32030000     -33.21370000     -73.99270000
C      -43.10040000     -33.85760000     -72.07590000
C      -42.81490000     -35.19060000     -72.21710000
C      -43.45330000     -33.55690000     -70.72650000
H      -42.80840000     -35.87990000     -73.06700000
C      -43.35140000     -34.65530000     -69.91370000
C      -43.90710000     -32.35830000     -69.95050000
C      -44.10490000     -32.64950000     -68.59750000
S      -42.98260000     -36.09040000     -70.76330000
S      -43.69060000     -34.34670000     -68.24450000
H      -44.57900000     -31.99140000     -67.88230000
