40
Properties=species:S:1:pos:R:3 #=T CELL(abcABC):=T 1.889726e+02=T 90.00000=T Traj:=T positionsangstrom=T Step:=T 0=T Bead:=T pbc="F F F"
C      -45.57380000     -31.53920000     -73.40290000
C      -44.27210000     -31.82690000     -73.15690000
C      -43.82230000     -33.19780000     -73.28450000
C      -44.73550000     -34.20650000     -73.64040000
C      -46.05760000     -33.90310000     -73.88540000
C      -46.51070000     -32.55330000     -73.80070000
H      -45.92060000     -30.53100000     -73.33960000
H      -42.82800000     -33.35700000     -73.41540000
H      -46.83100000     -34.68610000     -73.98800000
H      -47.50230000     -32.16780000     -74.02670000
C      -44.17620000     -35.62490000     -73.75670000
H      -43.10100000     -35.60170000     -73.53810000
H      -44.25380000     -36.11840000     -74.73990000
C      -43.28480000     -30.82620000     -72.75150000
H      -42.26750000     -31.05950000     -73.14630000
H      -43.58150000     -29.83530000     -73.09740000
S      -44.87420000     -36.88800000     -72.47750000
S      -42.98540000     -30.46030000     -70.84010000
C      -43.95070000     -36.32570000     -70.95210000
H      -43.29180000     -37.12380000     -70.77000000
H      -43.30610000     -35.44880000     -71.20750000
C      -42.71880000     -32.18370000     -70.38530000
H      -41.65750000     -32.36040000     -70.09560000
H      -42.97030000     -32.82100000     -71.24350000
C      -43.65420000     -32.50090000     -69.12890000
H      -43.23500000     -33.30550000     -68.47860000
H      -43.58390000     -31.55210000     -68.56970000
C      -44.74140000     -36.01280000     -69.62970000
H      -44.03440000     -35.59560000     -68.89970000
H      -45.12470000     -36.90230000     -69.11530000
C      -45.95370000     -35.01120000     -69.87510000
C      -47.18560000     -35.54550000     -70.07930000
C      -45.98810000     -33.57420000     -69.84740000
H      -47.44910000     -36.60550000     -70.09160000
C      -47.29190000     -33.08380000     -70.09230000
C      -45.07780000     -32.49770000     -69.56780000
C      -45.65000000     -31.26760000     -69.72400000
S      -48.47000000     -34.34300000     -70.16820000
S      -47.33440000     -31.39050000     -70.24880000
H      -45.31070000     -30.28440000     -69.45580000
