40
Properties=species:S:1:pos:R:3 #=T CELL(abcABC):=T 1.889726e+02=T 90.00000=T Traj:=T positionsangstrom=T Step:=T 0=T Bead:=T pbc="F F F"
C      -47.62750000     -33.50660000     -67.92850000
C      -46.19670000     -33.55650000     -67.78030000
C      -45.51410000     -32.46730000     -68.21150000
C      -46.10130000     -31.22490000     -68.57750000
C      -47.51880000     -31.18120000     -68.66230000
C      -48.28020000     -32.31250000     -68.26590000
H      -48.21990000     -34.33300000     -67.67140000
H      -44.44610000     -32.62600000     -68.24850000
H      -48.02700000     -30.31440000     -68.95200000
H      -49.31960000     -32.25060000     -68.52300000
C      -45.28650000     -30.09320000     -69.14530000
H      -44.25380000     -30.22690000     -69.02890000
H      -45.47970000     -29.09160000     -68.80810000
C      -45.51200000     -34.75770000     -67.21910000
H      -44.43590000     -34.53090000     -66.87490000
H      -46.04600000     -35.26580000     -66.38950000
S      -45.60410000     -29.62670000     -70.97970000
S      -45.38720000     -36.17030000     -68.41420000
C      -45.67200000     -31.08920000     -72.11010000
H      -46.55530000     -31.59280000     -71.78720000
H      -45.79480000     -30.75970000     -73.18580000
C      -44.62280000     -35.44740000     -69.93110000
H      -43.98750000     -36.31870000     -70.33630000
H      -43.86890000     -34.65060000     -69.60200000
C      -45.69660000     -35.00500000     -71.04580000
H      -46.59960000     -35.70200000     -70.99570000
H      -46.03500000     -33.93110000     -70.83180000
C      -44.38880000     -31.92370000     -71.94820000
H      -44.62190000     -32.61200000     -71.14740000
H      -43.53720000     -31.24140000     -71.65800000
C      -44.11740000     -32.70350000     -73.18210000
C      -43.48510000     -32.19360000     -74.31080000
C      -44.67370000     -34.00730000     -73.42330000
H      -42.99950000     -31.19470000     -74.34340000
C      -44.45100000     -34.43560000     -74.74850000
C      -45.31020000     -35.02070000     -72.55470000
C      -45.44540000     -36.17830000     -73.27060000
S      -43.61600000     -33.26100000     -75.69250000
S      -44.83790000     -36.10510000     -74.95040000
H      -45.94800000     -37.04120000     -72.85370000
