40
Properties=species:S:1:pos:R:3 #=T CELL(abcABC):=T 1.889726e+02=T 90.00000=T Traj:=T positionsangstrom=T Step:=T 0=T Bead:=T pbc="F F F"
C      -41.82840000     -34.70520000     -71.47390000
C      -43.14860000     -34.76550000     -71.01920000
C      -44.16580000     -34.58520000     -71.98900000
C      -43.85750000     -34.18800000     -73.29450000
C      -42.51710000     -34.24170000     -73.69450000
C      -41.50680000     -34.37320000     -72.76880000
H      -41.00400000     -34.73250000     -70.76140000
H      -45.26710000     -34.55370000     -71.78380000
H      -42.27480000     -33.89330000     -74.70590000
H      -40.39340000     -34.29410000     -73.13420000
C      -44.97310000     -33.82220000     -74.22050000
H      -45.96580000     -34.08910000     -73.77620000
H      -44.91830000     -34.42080000     -75.09960000
C      -43.54930000     -35.12060000     -69.61930000
H      -44.58780000     -35.38540000     -69.42480000
H      -42.83450000     -35.95300000     -69.31170000
S      -44.92500000     -31.98750000     -74.64310000
S      -43.05200000     -33.80480000     -68.38690000
C      -44.59690000     -31.25280000     -72.92770000
H      -44.06140000     -32.02940000     -72.39770000
H      -44.00310000     -30.36110000     -72.97040000
C      -43.76700000     -32.25310000     -69.15070000
H      -43.70100000     -32.46730000     -70.22630000
H      -42.98220000     -31.44630000     -69.04190000
C      -45.20360000     -31.97070000     -68.74300000
H      -45.18920000     -32.05140000     -67.70470000
H      -45.43270000     -30.88540000     -68.90650000
C      -45.74800000     -30.84290000     -72.09550000
H      -46.22380000     -29.95700000     -72.57230000
H      -45.38850000     -30.59560000     -71.13710000
C      -46.73150000     -31.94240000     -71.87330000
C      -47.81520000     -32.21340000     -72.67510000
C      -46.82210000     -32.88000000     -70.69790000
H      -48.00030000     -31.72060000     -73.67400000
C      -47.93630000     -33.77960000     -70.75140000
C      -46.18480000     -32.95450000     -69.40030000
C      -46.76520000     -33.96180000     -68.62050000
S      -48.84950000     -33.54110000     -72.19880000
S      -48.08050000     -34.82300000     -69.32920000
H      -46.51290000     -34.12190000     -67.58510000
