40
Properties=species:S:1:pos:R:3 #=T CELL(abcABC):=T 1.889726e+02=T 90.00000=T Traj:=T positionsangstrom=T Step:=T 0=T Bead:=T pbc="F F F"
C      -42.81980000     -35.93090000     -72.26240000
C      -44.06590000     -35.44870000     -71.70120000
C      -44.79140000     -34.44890000     -72.39980000
C      -44.28230000     -33.92830000     -73.62490000
C      -42.97830000     -34.30380000     -74.04560000
C      -42.31170000     -35.35080000     -73.41390000
H      -42.41890000     -36.70680000     -71.64960000
H      -45.54440000     -33.85590000     -71.91970000
H      -42.53550000     -33.89230000     -74.91240000
H      -41.33060000     -35.64610000     -73.82970000
C      -45.09090000     -32.78380000     -74.30520000
H      -46.11250000     -32.80360000     -74.04610000
H      -45.13740000     -32.90510000     -75.35860000
C      -44.60860000     -35.89850000     -70.40890000
H      -45.62770000     -35.58610000     -70.19940000
H      -44.60230000     -36.99400000     -70.25510000
S      -44.32080000     -31.16810000     -74.03310000
S      -43.44230000     -35.53340000     -69.00460000
C      -43.74840000     -31.17700000     -72.26840000
H      -43.22400000     -32.20260000     -72.06650000
H      -42.94670000     -30.51020000     -72.35900000
C      -43.41320000     -33.63070000     -69.11610000
H      -43.31190000     -33.32980000     -70.15840000
H      -42.48650000     -33.28820000     -68.54140000
C      -44.68200000     -33.04000000     -68.43190000
H      -44.89710000     -33.41120000     -67.43360000
H      -44.48820000     -32.00020000     -68.47430000
C      -44.85440000     -30.72860000     -71.24080000
H      -44.97460000     -29.64690000     -71.41760000
H      -44.48070000     -30.71760000     -70.18700000
C      -46.11840000     -31.55560000     -71.26100000
C      -47.09350000     -31.19440000     -72.17800000
C      -46.48140000     -32.50290000     -70.24090000
H      -47.02570000     -30.55570000     -73.01780000
C      -47.79650000     -32.86620000     -70.47420000
C      -46.00760000     -33.23450000     -69.06530000
C      -46.78480000     -34.24450000     -68.67950000
S      -48.58050000     -32.12700000     -71.90430000
S      -48.28910000     -34.23340000     -69.59350000
H      -46.64370000     -34.94850000     -67.86860000
