40
Properties=species:S:1:pos:R:3 #=T CELL(abcABC):=T 1.889726e+02=T 90.00000=T Traj:=T positionsangstrom=T Step:=T 0=T Bead:=T pbc="F F F"
C      -44.59150000     -32.25980000     -75.05270000
C      -43.93140000     -33.42270000     -74.62030000
C      -44.71590000     -34.48880000     -74.20130000
C      -46.11070000     -34.45680000     -74.20270000
C      -46.74800000     -33.37120000     -74.84060000
C      -46.02510000     -32.26920000     -75.20300000
H      -43.91000000     -31.41270000     -75.31130000
H      -44.28540000     -35.40650000     -73.76490000
H      -47.81160000     -33.38270000     -75.01410000
H      -46.50260000     -31.49300000     -75.76970000
C      -46.97830000     -35.64230000     -73.71080000
H      -46.38440000     -36.41710000     -73.22760000
H      -47.48120000     -36.16520000     -74.52160000
C      -42.46350000     -33.36860000     -74.48930000
H      -41.95650000     -33.84770000     -75.26440000
H      -42.08260000     -32.35590000     -74.53540000
S      -48.35930000     -35.11490000     -72.53320000
S      -42.05920000     -34.12000000     -72.88250000
C      -47.47000000     -34.29460000     -71.12580000
H      -48.19100000     -34.20010000     -70.35950000
H      -46.80690000     -35.07000000     -70.85830000
C      -43.07470000     -33.15840000     -71.55440000
H      -43.86020000     -32.63730000     -72.07920000
H      -42.34690000     -32.61670000     -71.05880000
C      -43.69430000     -34.25200000     -70.66720000
H      -44.61930000     -34.61740000     -71.02770000
H      -42.98630000     -35.04480000     -70.50120000
C      -46.77570000     -32.96340000     -71.43770000
H      -47.37020000     -32.30120000     -72.00330000
H      -45.87060000     -33.22490000     -72.08980000
C      -46.48180000     -32.45410000     -70.08000000
C      -47.35170000     -31.66420000     -69.44920000
C      -45.31720000     -32.85190000     -69.21130000
H      -48.30420000     -31.36670000     -69.69400000
C      -45.36300000     -32.16770000     -68.00910000
C      -44.06850000     -33.64200000     -69.37190000
C      -43.55820000     -33.86560000     -68.15380000
S      -46.87540000     -31.32180000     -67.73350000
S      -44.30050000     -32.90780000     -66.87030000
H      -42.76830000     -34.58240000     -67.98940000
