40
Properties=species:S:1:pos:R:3 #=T CELL(abcABC):=T 1.889726e+02=T 90.00000=T Traj:=T positionsangstrom=T Step:=T 0=T Bead:=T pbc="F F F"
C      -47.70800000     -33.97480000     -68.13860000
C      -46.30550000     -33.85410000     -68.03830000
C      -45.65530000     -32.67410000     -68.44210000
C      -46.37540000     -31.53720000     -68.85050000
C      -47.76500000     -31.72900000     -69.19200000
C      -48.36850000     -32.96240000     -68.83670000
H      -48.21110000     -34.97440000     -68.00130000
H      -44.59040000     -32.48190000     -68.22090000
H      -48.32970000     -31.03250000     -69.75760000
H      -49.41170000     -33.09340000     -69.07440000
C      -45.75930000     -30.17010000     -68.76540000
H      -44.75590000     -30.31320000     -68.32140000
H      -46.41050000     -29.52870000     -68.18010000
C      -45.39550000     -34.96290000     -67.54330000
H      -44.31420000     -34.71430000     -67.41400000
H      -45.66290000     -35.33910000     -66.51470000
S      -45.49690000     -29.36350000     -70.49840000
S      -45.60700000     -36.50020000     -68.63990000
C      -45.54760000     -30.81910000     -71.64730000
H      -46.46240000     -31.40110000     -71.43910000
H      -45.55260000     -30.33850000     -72.66010000
C      -44.90650000     -35.96700000     -70.31090000
H      -44.51430000     -36.88510000     -70.73000000
H      -44.10340000     -35.31420000     -69.97660000
C      -45.89510000     -35.22800000     -71.25100000
H      -46.75780000     -35.93220000     -71.39730000
H      -46.27790000     -34.28580000     -70.83940000
C      -44.34910000     -31.73270000     -71.50750000
H      -44.34070000     -32.53640000     -70.73070000
H      -43.40750000     -31.15460000     -71.33510000
C      -44.19340000     -32.42830000     -72.93730000
C      -43.43070000     -31.77570000     -73.89740000
C      -44.60860000     -33.77410000     -73.28210000
H      -42.92830000     -30.83560000     -73.86880000
C      -44.16770000     -34.12380000     -74.58250000
C      -45.34140000     -34.92620000     -72.67430000
C      -45.38810000     -36.04320000     -73.58260000
S      -43.25150000     -32.83510000     -75.32590000
S      -44.56620000     -35.76180000     -75.11260000
H      -45.78360000     -37.06430000     -73.53650000
