40
Properties=species:S:1:pos:R:3 #=T CELL(abcABC):=T 1.889726e+02=T 90.00000=T Traj:=T positionsangstrom=T Step:=T 0=T Bead:=T pbc="F F F"
C      -42.71630000     -36.00030000     -72.21820000
C      -43.95900000     -35.50860000     -71.70610000
C      -44.69700000     -34.57750000     -72.51460000
C      -44.12840000     -34.03010000     -73.69580000
C      -42.88030000     -34.49110000     -74.14570000
C      -42.25390000     -35.51650000     -73.44410000
H      -42.21140000     -36.80300000     -71.62210000
H      -45.71320000     -34.38160000     -72.20900000
H      -42.40720000     -33.99320000     -74.94480000
H      -41.34610000     -35.88250000     -73.93680000
C      -44.87200000     -32.99140000     -74.44770000
H      -45.96040000     -33.12890000     -74.11410000
H      -44.65680000     -33.06990000     -75.52440000
C      -44.41870000     -36.01780000     -70.40050000
H      -45.43990000     -35.71230000     -70.33790000
H      -44.39570000     -37.10630000     -70.23860000
S      -44.39670000     -31.17470000     -73.99960000
S      -43.43420000     -35.22050000     -68.98200000
C      -43.88740000     -31.24340000     -72.28370000
H      -43.52710000     -32.30710000     -72.07680000
H      -42.98330000     -30.65960000     -72.09080000
C      -43.60090000     -33.46910000     -69.00180000
H      -43.46010000     -32.95150000     -69.94620000
H      -42.75170000     -33.11770000     -68.41530000
C      -44.87670000     -32.80280000     -68.33330000
H      -44.93970000     -33.17160000     -67.31780000
H      -44.68490000     -31.68160000     -68.19260000
C      -44.84230000     -30.70230000     -71.20660000
H      -44.87850000     -29.65560000     -71.18920000
H      -44.27770000     -30.94330000     -70.23500000
C      -46.16640000     -31.44910000     -71.14500000
C      -47.11150000     -31.13990000     -72.09170000
C      -46.56280000     -32.61680000     -70.31750000
H      -46.89520000     -30.33420000     -72.80550000
C      -47.76600000     -33.15540000     -70.70840000
C      -46.12830000     -33.15190000     -69.00720000
C      -46.97440000     -33.99920000     -68.48120000
S      -48.45050000     -32.19010000     -72.05040000
S      -48.39450000     -34.23850000     -69.52140000
H      -46.92320000     -34.58170000     -67.55960000
