40
Properties=species:S:1:pos:R:3 #=T CELL(abcABC):=T 1.889726e+02=T 90.00000=T Traj:=T positionsangstrom=T Step:=T 0=T Bead:=T pbc="F F F"
C      -48.07510000     -34.09870000     -68.35760000
C      -46.70340000     -34.08910000     -68.03390000
C      -45.91290000     -32.91830000     -68.31700000
C      -46.49070000     -31.73720000     -68.83950000
C      -47.85850000     -31.74850000     -69.03290000
C      -48.66110000     -32.88800000     -68.87330000
H      -48.70790000     -34.93430000     -68.53030000
H      -44.87990000     -33.04390000     -68.06290000
H      -48.32030000     -30.81070000     -69.22900000
H      -49.71260000     -32.85920000     -69.10840000
C      -45.50540000     -30.60070000     -68.99770000
H      -44.46330000     -30.90600000     -68.89880000
H      -45.56340000     -29.87290000     -68.14050000
C      -45.90950000     -35.31250000     -67.53750000
H      -44.96010000     -34.99940000     -67.10450000
H      -46.52280000     -35.80740000     -66.77320000
S      -45.48440000     -29.65500000     -70.52730000
S      -45.57670000     -36.57420000     -68.88030000
C      -45.30910000     -30.91790000     -71.84510000
H      -46.24110000     -31.43000000     -72.03570000
H      -45.05180000     -30.38170000     -72.82310000
C      -44.82860000     -35.55430000     -70.28080000
H      -44.15460000     -36.32270000     -70.75580000
H      -44.19250000     -34.88650000     -69.80210000
C      -45.86090000     -34.80740000     -71.21340000
H      -46.90250000     -35.29100000     -71.28960000
H      -46.09440000     -33.79890000     -70.87960000
C      -44.09730000     -31.80710000     -71.40010000
H      -44.39590000     -32.54270000     -70.68260000
H      -43.26590000     -31.19350000     -71.08430000
C      -43.66690000     -32.52720000     -72.68920000
C      -42.85520000     -31.91850000     -73.61140000
C      -44.34010000     -33.74310000     -73.18050000
H      -42.30740000     -31.04220000     -73.59380000
C      -44.07520000     -33.97510000     -74.52630000
C      -45.28030000     -34.73630000     -72.60010000
C      -45.51750000     -35.70410000     -73.59320000
S      -43.03210000     -32.71190000     -75.19690000
S      -44.90440000     -35.38620000     -75.16890000
H      -46.19330000     -36.55740000     -73.50620000
