40
Properties=species:S:1:pos:R:3 #=T CELL(abcABC):=T 1.889726e+02=T 90.00000=T Traj:=T positionsangstrom=T Step:=T 0=T Bead:=T pbc="F F F"
C      -48.14810000     -33.95640000     -68.33890000
C      -46.79660000     -34.12240000     -68.01880000
C      -45.89650000     -33.06540000     -68.26270000
C      -46.37260000     -31.87360000     -68.81680000
C      -47.72500000     -31.66740000     -69.10010000
C      -48.56220000     -32.75990000     -68.96810000
H      -48.82000000     -34.72620000     -68.04060000
H      -44.90280000     -33.02400000     -67.94960000
H      -48.12050000     -30.84040000     -69.63370000
H      -49.65120000     -32.75190000     -69.17840000
C      -45.50790000     -30.63600000     -68.78490000
H      -44.53530000     -30.93060000     -68.43510000
H      -45.92480000     -30.01710000     -67.98010000
C      -46.35300000     -35.46000000     -67.56970000
H      -45.65880000     -35.36910000     -66.72880000
H      -47.22080000     -36.08490000     -67.25270000
S      -45.64650000     -29.60610000     -70.30470000
S      -45.55640000     -36.48670000     -68.89440000
C      -45.23590000     -30.74560000     -71.65770000
H      -46.18070000     -31.33080000     -71.85640000
H      -45.18380000     -30.06360000     -72.47530000
C      -44.70450000     -35.45980000     -70.24760000
H      -44.03330000     -36.10550000     -70.85950000
H      -44.01480000     -34.68360000     -69.90150000
C      -45.75040000     -34.87080000     -71.26700000
H      -46.52240000     -35.57520000     -71.25400000
H      -46.23490000     -33.96140000     -70.92710000
C      -43.97980000     -31.66680000     -71.52880000
H      -44.10820000     -32.39660000     -70.67840000
H      -43.19280000     -30.94190000     -71.14920000
C      -43.78020000     -32.39810000     -72.85010000
C      -43.07130000     -31.80530000     -73.88020000
C      -44.28880000     -33.74840000     -73.21760000
H      -42.24250000     -31.14160000     -73.73020000
C      -43.97330000     -34.09580000     -74.50650000
C      -45.24820000     -34.72450000     -72.65150000
C      -45.63390000     -35.68500000     -73.57420000
S      -42.91200000     -32.87910000     -75.27980000
S      -44.82200000     -35.49060000     -75.20190000
H      -46.35530000     -36.51770000     -73.49960000
