40
Properties=species:S:1:pos:R:3 #=T CELL(abcABC):=T 1.889726e+02=T 90.00000=T Traj:=T positionsangstrom=T Step:=T 0=T Bead:=T pbc="F F F"
C      -48.18300000     -33.98030000     -68.69020000
C      -46.91180000     -34.19290000     -68.15340000
C      -46.05380000     -33.08250000     -68.03030000
C      -46.47550000     -31.87950000     -68.49600000
C      -47.70740000     -31.69700000     -69.17130000
C      -48.58190000     -32.76710000     -69.18940000
H      -48.82540000     -34.83450000     -68.91180000
H      -45.04110000     -33.14040000     -67.58970000
H      -48.08780000     -30.68200000     -69.53790000
H      -49.56420000     -32.68620000     -69.66330000
C      -45.68030000     -30.60370000     -68.46590000
H      -44.67490000     -30.88850000     -68.14700000
H      -46.01220000     -29.81860000     -67.77480000
C      -46.41710000     -35.60610000     -67.80120000
H      -45.80390000     -35.64000000     -66.89030000
H      -47.28830000     -36.23780000     -67.73250000
S      -45.55390000     -29.69450000     -70.14880000
S      -45.48170000     -36.38730000     -69.23520000
C      -45.49690000     -31.04650000     -71.48340000
H      -46.29890000     -31.82050000     -71.47990000
H      -45.76140000     -30.42180000     -72.41650000
C      -44.77950000     -35.03970000     -70.22940000
H      -43.85320000     -35.31620000     -70.61830000
H      -44.37720000     -34.23880000     -69.58980000
C      -45.82550000     -34.46290000     -71.27280000
H      -46.78760000     -34.93860000     -71.06710000
H      -45.84400000     -33.45180000     -70.94090000
C      -44.09710000     -31.67940000     -71.61750000
H      -43.98750000     -32.43910000     -70.78590000
H      -43.41370000     -30.83260000     -71.40890000
C      -43.85160000     -32.38320000     -72.94730000
C      -43.10430000     -31.79440000     -73.95790000
C      -44.34890000     -33.66690000     -73.31220000
H      -42.78130000     -30.72720000     -74.08140000
C      -43.87020000     -34.14390000     -74.54020000
C      -45.19560000     -34.58050000     -72.64490000
C      -45.36430000     -35.73450000     -73.34780000
S      -42.92470000     -32.88720000     -75.37060000
S      -44.58630000     -35.69970000     -74.88190000
H      -45.99830000     -36.56480000     -73.00000000
