40
Properties=species:S:1:pos:R:3 #=T CELL(abcABC):=T 1.889726e+02=T 90.00000=T Traj:=T positionsangstrom=T Step:=T 0=T Bead:=T pbc="F F F"
C      -47.79910000     -34.05260000     -68.35650000
C      -46.42800000     -33.95790000     -68.03030000
C      -45.74710000     -32.78000000     -68.32780000
C      -46.43440000     -31.63070000     -68.82040000
C      -47.76950000     -31.79740000     -69.16070000
C      -48.45840000     -32.99070000     -68.89580000
H      -48.25990000     -35.00090000     -67.95140000
H      -44.62280000     -32.65000000     -68.17120000
H      -48.34660000     -30.97590000     -69.58680000
H      -49.41320000     -33.23470000     -69.22290000
C      -45.73680000     -30.29960000     -68.80370000
H      -44.70680000     -30.36580000     -68.42810000
H      -46.34920000     -29.65710000     -68.21080000
C      -45.71720000     -35.21150000     -67.60110000
H      -44.67000000     -35.13950000     -67.28130000
H      -46.30990000     -35.59610000     -66.75160000
S      -45.74290000     -29.56690000     -70.53410000
S      -45.64840000     -36.61260000     -68.98520000
C      -45.28590000     -31.03890000     -71.56730000
H      -46.03950000     -31.77590000     -71.36840000
H      -45.35070000     -30.77560000     -72.66540000
C      -44.75900000     -35.66610000     -70.29570000
H      -44.16180000     -36.39440000     -70.90940000
H      -44.10600000     -34.95330000     -69.74160000
C      -45.75450000     -34.87920000     -71.24530000
H      -46.66340000     -35.50760000     -71.21350000
H      -45.93840000     -33.94180000     -70.73210000
C      -43.95900000     -31.81100000     -71.33210000
H      -44.02210000     -32.47320000     -70.43650000
H      -43.11460000     -31.13080000     -71.13650000
C      -43.70620000     -32.60550000     -72.66610000
C      -42.88870000     -32.01620000     -73.62110000
C      -44.47320000     -33.69970000     -73.17090000
H      -42.57910000     -30.99290000     -73.69850000
C      -44.22550000     -33.93750000     -74.52490000
C      -45.32760000     -34.76570000     -72.63150000
C      -45.70930000     -35.67430000     -73.64680000
S      -43.04210000     -32.85190000     -75.16700000
S      -44.88520000     -35.38230000     -75.21670000
H      -46.22010000     -36.57950000     -73.43320000
