40
Properties=species:S:1:pos:R:3 #=T CELL(abcABC):=T 1.889726e+02=T 90.00000=T Traj:=T positionsangstrom=T Step:=T 0=T Bead:=T pbc="F F F"
C      -47.53910000     -34.04450000     -68.17760000
C      -46.15680000     -33.89570000     -68.11010000
C      -45.67800000     -32.59720000     -68.24330000
C      -46.47970000     -31.54570000     -68.64860000
C      -47.86250000     -31.76540000     -68.82210000
C      -48.40320000     -32.96370000     -68.44140000
H      -48.05800000     -35.02060000     -67.99240000
H      -44.59210000     -32.45240000     -68.17650000
H      -48.49190000     -30.92680000     -69.09310000
H      -49.51100000     -32.96510000     -68.36700000
C      -45.91380000     -30.11750000     -68.85400000
H      -44.93340000     -30.04620000     -68.28060000
H      -46.61460000     -29.42610000     -68.33380000
C      -45.28770000     -35.10140000     -67.74210000
H      -44.23410000     -34.83430000     -67.60710000
H      -45.64000000     -35.51200000     -66.77600000
S      -45.76290000     -29.48470000     -70.56780000
S      -45.38500000     -36.51720000     -68.88740000
C      -45.65270000     -30.85030000     -71.73230000
H      -46.65950000     -31.27860000     -71.74120000
H      -45.54990000     -30.38900000     -72.77310000
C      -44.80560000     -35.94580000     -70.48150000
H      -44.50660000     -36.79460000     -71.11350000
H      -43.87780000     -35.34140000     -70.43900000
C      -45.77960000     -35.09520000     -71.28000000
H      -46.78850000     -35.54820000     -71.22820000
H      -45.88360000     -34.14360000     -70.76480000
C      -44.49390000     -31.80980000     -71.56910000
H      -44.76020000     -32.51340000     -70.78110000
H      -43.64140000     -31.30500000     -71.11050000
C      -44.16240000     -32.40970000     -72.87600000
C      -43.31820000     -31.90160000     -73.83360000
C      -44.51680000     -33.83690000     -73.25980000
H      -42.73630000     -30.98040000     -73.76030000
C      -43.94070000     -34.17910000     -74.50780000
C      -45.35200000     -34.85570000     -72.71640000
C      -45.55540000     -35.81660000     -73.65120000
S      -43.13170000     -32.84870000     -75.21980000
S      -44.71810000     -35.62340000     -75.10900000
H      -46.04200000     -36.73200000     -73.41730000
