40
Properties=species:S:1:pos:R:3 #=T CELL(abcABC):=T 1.889726e+02=T 90.00000=T Traj:=T positionsangstrom=T Step:=T 0=T Bead:=T pbc="F F F"
C      -48.19150000     -33.97620000     -68.79680000
C      -46.86750000     -34.16580000     -68.17490000
C      -46.06570000     -33.07270000     -68.09140000
C      -46.49490000     -31.83680000     -68.58890000
C      -47.82610000     -31.61230000     -69.00460000
C      -48.68700000     -32.70960000     -69.07730000
H      -48.92910000     -34.78170000     -68.83070000
H      -45.03520000     -33.17580000     -67.78250000
H      -48.25220000     -30.60070000     -69.21210000
H      -49.72000000     -32.53990000     -69.39160000
C      -45.40390000     -30.74900000     -68.68680000
H      -44.38220000     -31.22020000     -68.66970000
H      -45.49840000     -29.98670000     -67.90270000
C      -46.37200000     -35.46560000     -67.68420000
H      -45.64200000     -35.14350000     -66.92580000
H      -46.99710000     -36.19440000     -67.15700000
S      -45.52570000     -29.67120000     -70.21210000
S      -45.48460000     -36.49690000     -69.01160000
C      -45.44680000     -30.94520000     -71.55830000
H      -46.09560000     -31.80830000     -71.35160000
H      -45.67320000     -30.49880000     -72.47590000
C      -44.79530000     -35.18940000     -70.16090000
H      -44.11030000     -35.80680000     -70.67430000
H      -44.42450000     -34.35160000     -69.50850000
C      -45.79150000     -34.65870000     -71.21380000
H      -46.69280000     -35.26850000     -71.33710000
H      -45.97150000     -33.56950000     -71.03700000
C      -44.03120000     -31.53760000     -71.63070000
H      -43.90320000     -32.17110000     -70.73780000
H      -43.17450000     -30.91010000     -71.58020000
C      -43.74970000     -32.39580000     -72.85190000
C      -42.96690000     -31.93540000     -73.89010000
C      -44.46230000     -33.62210000     -73.27540000
H      -42.38480000     -30.94150000     -73.80130000
C      -44.07980000     -34.02260000     -74.59610000
C      -45.24500000     -34.66390000     -72.62370000
C      -45.43390000     -35.73330000     -73.48900000
S      -42.97880000     -32.91640000     -75.31990000
S      -44.62260000     -35.56960000     -75.07660000
H      -45.84540000     -36.75080000     -73.25440000
