40
Properties=species:S:1:pos:R:3 #=T CELL(abcABC):=T 1.889726e+02=T 90.00000=T Traj:=T positionsangstrom=T Step:=T 0=T Bead:=T pbc="F F F"
C      -47.60740000     -34.13170000     -68.62160000
C      -46.30310000     -33.96240000     -68.12570000
C      -45.78480000     -32.67060000     -68.15980000
C      -46.51970000     -31.53530000     -68.57420000
C      -47.84510000     -31.76200000     -68.97310000
C      -48.35300000     -33.05680000     -69.05190000
H      -48.03500000     -35.18190000     -68.73060000
H      -44.71520000     -32.67880000     -67.84670000
H      -48.28800000     -30.81250000     -69.34360000
H      -49.39700000     -33.24140000     -69.38130000
C      -45.81890000     -30.21350000     -68.65610000
H      -44.85090000     -30.28050000     -68.20930000
H      -46.32300000     -29.41440000     -68.05990000
C      -45.47830000     -35.09040000     -67.66180000
H      -44.45380000     -34.73080000     -67.60180000
H      -45.75300000     -35.51130000     -66.68790000
S      -45.64540000     -29.63360000     -70.38650000
S      -45.53340000     -36.47700000     -68.86040000
C      -45.65680000     -31.13350000     -71.58170000
H      -46.52610000     -31.76090000     -71.37320000
H      -45.81240000     -30.58960000     -72.47520000
C      -44.90190000     -35.88720000     -70.53950000
H      -44.75190000     -36.72560000     -71.17250000
H      -43.90620000     -35.49300000     -70.46280000
C      -45.79450000     -34.91650000     -71.27700000
H      -46.78250000     -35.18410000     -71.42400000
H      -45.95960000     -33.95760000     -70.76060000
C      -44.23610000     -31.82110000     -71.51120000
H      -44.18330000     -32.38840000     -70.58880000
H      -43.49890000     -31.01620000     -71.30370000
C      -43.80560000     -32.55940000     -72.81070000
C      -43.05170000     -31.90280000     -73.73220000
C      -44.35220000     -33.81290000     -73.20660000
H      -42.44330000     -31.00960000     -73.58360000
C      -44.05440000     -34.06560000     -74.53370000
C      -45.31460000     -34.72290000     -72.67530000
C      -45.71900000     -35.67190000     -73.63310000
S      -42.96330000     -32.92050000     -75.18480000
S      -44.98120000     -35.36670000     -75.18630000
H      -46.43140000     -36.45680000     -73.52220000
