40
Properties=species:S:1:pos:R:3 #=T CELL(abcABC):=T 1.889726e+02=T 90.00000=T Traj:=T positionsangstrom=T Step:=T 0=T Bead:=T pbc="F F F"
C      -47.61630000     -34.03100000     -68.51910000
C      -46.25920000     -33.89510000     -68.12580000
C      -45.77680000     -32.56920000     -68.04970000
C      -46.52320000     -31.47940000     -68.43330000
C      -47.79340000     -31.67150000     -68.93500000
C      -48.36120000     -32.95930000     -68.97360000
H      -47.95410000     -35.02680000     -68.69500000
H      -44.78210000     -32.34130000     -67.75120000
H      -48.40820000     -30.75310000     -69.09230000
H      -49.44990000     -33.12840000     -69.22100000
C      -45.97030000     -30.04920000     -68.52370000
H      -44.96260000     -29.97910000     -68.03590000
H      -46.52340000     -29.25950000     -67.99460000
C      -45.26760000     -35.05230000     -67.86910000
H      -44.29620000     -34.57330000     -67.91970000
H      -45.34220000     -35.42230000     -66.83100000
S      -45.76010000     -29.53260000     -70.36130000
S      -45.37170000     -36.57310000     -68.92060000
C      -45.56640000     -31.09010000     -71.41070000
H      -46.23570000     -31.91950000     -71.02920000
H      -45.97090000     -30.82020000     -72.40680000
C      -44.96930000     -35.98890000     -70.60830000
H      -44.90540000     -36.90480000     -71.23290000
H      -43.95030000     -35.50440000     -70.50100000
C      -45.83910000     -34.86870000     -71.32490000
H      -46.83580000     -35.27590000     -71.16780000
H      -45.75290000     -33.88930000     -70.77400000
C      -44.12730000     -31.74460000     -71.52120000
H      -44.07270000     -32.43300000     -70.68760000
H      -43.37050000     -30.96470000     -71.52720000
C      -43.97110000     -32.49870000     -72.89660000
C      -43.11620000     -32.00360000     -73.80850000
C      -44.61890000     -33.71900000     -73.34940000
H      -42.43580000     -31.20700000     -73.55760000
C      -44.23100000     -34.06430000     -74.64690000
C      -45.45400000     -34.72540000     -72.75710000
C      -45.65950000     -35.77410000     -73.63770000
S      -43.03250000     -32.94460000     -75.23050000
S      -44.78310000     -35.63080000     -75.10160000
H      -46.22280000     -36.74240000     -73.45650000
