40
Properties=species:S:1:pos:R:3 #=T CELL(abcABC):=T 1.889726e+02=T 90.00000=T Traj:=T positionsangstrom=T Step:=T 0=T Bead:=T pbc="F F F"
C      -47.34620000     -34.06070000     -67.10200000
C      -45.99790000     -34.11330000     -67.59820000
C      -45.46440000     -32.92920000     -68.16160000
C      -46.24980000     -31.78330000     -68.31100000
C      -47.55800000     -31.76860000     -67.90760000
C      -48.13170000     -32.93330000     -67.20810000
H      -47.81680000     -34.92090000     -66.66560000
H      -44.40910000     -32.93740000     -68.53780000
H      -48.15180000     -30.89150000     -68.19650000
H      -49.12860000     -33.01140000     -66.69250000
C      -45.66770000     -30.53640000     -68.91190000
H      -44.60710000     -30.64560000     -69.02060000
H      -45.80450000     -29.64640000     -68.26490000
C      -45.10740000     -35.34300000     -67.52930000
H      -44.07090000     -34.95990000     -67.43460000
H      -45.26260000     -36.01370000     -66.74400000
S      -46.48770000     -30.08090000     -70.51130000
S      -45.23630000     -36.31120000     -69.08570000
C      -46.12440000     -31.25130000     -71.91260000
H      -46.70200000     -32.20020000     -71.92020000
H      -46.40270000     -30.73320000     -72.83530000
C      -44.42930000     -35.23250000     -70.37660000
H      -43.57340000     -35.78070000     -70.73080000
H      -44.05330000     -34.33320000     -69.88430000
C      -45.45430000     -34.80820000     -71.40780000
H      -46.29010000     -35.57730000     -71.32380000
H      -45.86280000     -33.85950000     -71.20240000
C      -44.65840000     -31.51850000     -71.96160000
H      -44.39160000     -32.25270000     -71.18090000
H      -44.10840000     -30.59030000     -71.92410000
C      -44.31230000     -32.22020000     -73.29960000
C      -43.94070000     -31.58390000     -74.42030000
C      -44.53460000     -33.60170000     -73.53480000
H      -43.36660000     -30.57790000     -74.44270000
C      -44.17630000     -33.92660000     -74.81130000
C      -45.01760000     -34.80860000     -72.84900000
C      -45.04340000     -35.96690000     -73.59310000
S      -43.53270000     -32.63240000     -75.78600000
S      -44.46580000     -35.59010000     -75.21780000
H      -45.52100000     -36.92410000     -73.20600000
