40
Properties=species:S:1:pos:R:3 #=T CELL(abcABC):=T 1.889726e+02=T 90.00000=T Traj:=T positionsangstrom=T Step:=T 0=T Bead:=T pbc="F F F"
C      -43.38620000     -33.54170000     -72.45110000
C      -43.23420000     -34.94060000     -72.25000000
C      -44.24220000     -35.76750000     -72.70160000
C      -45.44090000     -35.21290000     -73.19420000
C      -45.47410000     -33.83340000     -73.49310000
C      -44.46800000     -32.96580000     -73.08390000
H      -42.53940000     -32.92840000     -72.15480000
H      -44.07190000     -36.78410000     -72.46990000
H      -46.38440000     -33.40310000     -73.83280000
H      -44.43320000     -31.92260000     -73.36310000
C      -46.52590000     -36.10930000     -73.78180000
H      -46.12790000     -36.99670000     -74.11480000
H      -47.06620000     -35.58980000     -74.60860000
C      -42.12110000     -35.45790000     -71.39740000
H      -42.47370000     -36.42310000     -70.94270000
H      -41.13660000     -35.50110000     -71.98040000
S      -47.88900000     -36.50200000     -72.58250000
S      -41.62960000     -34.21130000     -70.01530000
C      -48.43010000     -34.78620000     -71.91390000
H      -48.46760000     -34.21230000     -72.80780000
H      -49.45720000     -34.88530000     -71.53340000
C      -43.11160000     -34.23190000     -68.88080000
H      -42.85270000     -33.59220000     -67.98030000
H      -43.16020000     -35.30700000     -68.43420000
C      -44.48540000     -33.94160000     -69.44860000
H      -44.66980000     -34.50730000     -70.37110000
H      -45.27970000     -34.19620000     -68.74150000
C      -47.56650000     -34.26320000     -70.79830000
H      -46.65810000     -34.88890000     -70.66660000
H      -48.06310000     -34.35610000     -69.79600000
C      -47.14580000     -32.76990000     -71.01060000
C      -48.04530000     -31.91940000     -71.58110000
C      -45.91060000     -32.10560000     -70.44820000
H      -49.01090000     -32.16830000     -71.99700000
C      -46.04800000     -30.76470000     -70.62390000
C      -44.75710000     -32.50060000     -69.79250000
C      -43.95710000     -31.43260000     -69.47870000
S      -47.49060000     -30.18880000     -71.46630000
S      -44.68250000     -29.92360000     -69.98310000
H      -42.99370000     -31.51030000     -68.99730000
