40
Properties=species:S:1:pos:R:3 #=T CELL(abcABC):=T 1.889726e+02=T 90.00000=T Traj:=T positionsangstrom=T Step:=T 0=T Bead:=T pbc="F F F"
C      -44.97340000     -31.29390000     -72.50580000
C      -44.67590000     -32.25150000     -73.50280000
C      -45.64620000     -33.21430000     -73.85640000
C      -46.97840000     -33.13790000     -73.33070000
C      -47.29780000     -32.16920000     -72.39480000
C      -46.29490000     -31.27880000     -71.99710000
H      -44.21630000     -30.61570000     -72.14230000
H      -45.43670000     -33.99930000     -74.51930000
H      -48.30960000     -32.05830000     -72.03690000
H      -46.44140000     -30.48870000     -71.18540000
C      -48.00920000     -34.14410000     -73.74570000
H      -47.82460000     -34.53160000     -74.82330000
H      -49.03480000     -33.64360000     -73.68260000
C      -43.29600000     -32.25980000     -74.11270000
H      -43.16830000     -32.85930000     -74.96340000
H      -43.07720000     -31.23440000     -74.35220000
S      -48.13650000     -35.41990000     -72.40680000
S      -41.96470000     -32.84060000     -72.99070000
C      -46.43570000     -36.09210000     -72.20430000
H      -46.41450000     -37.14870000     -72.56660000
H      -45.76540000     -35.55780000     -72.92010000
C      -42.68230000     -34.43760000     -72.30180000
H      -42.01780000     -35.29560000     -72.57230000
H      -43.76870000     -34.56420000     -72.61460000
C      -42.69070000     -34.48410000     -70.74850000
H      -43.25330000     -35.43210000     -70.59100000
H      -41.68870000     -34.68930000     -70.38770000
C      -45.92310000     -36.12270000     -70.82320000
H      -44.84240000     -36.43270000     -70.89300000
H      -46.44150000     -36.92350000     -70.28220000
C      -46.00620000     -34.79480000     -69.99910000
C      -47.22750000     -34.31710000     -69.52100000
C      -44.92930000     -33.78910000     -69.79590000
H      -48.14610000     -34.92380000     -69.45280000
C      -45.41550000     -32.72340000     -68.97980000
C      -43.55300000     -33.52890000     -69.99750000
C      -43.02120000     -32.47100000     -69.33040000
S      -47.16740000     -32.75020000     -68.62720000
S      -44.25240000     -31.53810000     -68.50360000
H      -42.00800000     -32.04010000     -69.55300000
