40
Properties=species:S:1:pos:R:3 #=T CELL(abcABC):=T 1.889726e+02=T 90.00000=T Traj:=T positionsangstrom=T Step:=T 0=T Bead:=T pbc="F F F"
C      -44.95000000     -31.40720000     -72.40890000
C      -44.70230000     -32.18720000     -73.59920000
C      -45.71810000     -33.11800000     -74.04320000
C      -46.92310000     -33.20650000     -73.37450000
C      -47.13030000     -32.39690000     -72.20760000
C      -46.14640000     -31.54840000     -71.75880000
H      -44.17550000     -30.73130000     -72.09920000
H      -45.43230000     -33.65630000     -74.96640000
H      -48.08010000     -32.56200000     -71.65410000
H      -46.38570000     -30.94280000     -70.85160000
C      -47.95910000     -34.26100000     -73.80210000
H      -47.58780000     -34.81340000     -74.63000000
H      -48.95850000     -33.97050000     -73.91010000
C      -43.30190000     -32.28350000     -74.19990000
H      -43.12340000     -33.02490000     -75.02870000
H      -43.04950000     -31.28480000     -74.64420000
S      -48.13800000     -35.46640000     -72.41960000
S      -42.07870000     -32.66960000     -72.82510000
C      -46.36200000     -36.00020000     -72.17220000
H      -46.29560000     -36.95360000     -72.68680000
H      -45.77880000     -35.23030000     -72.67060000
C      -42.68710000     -34.34640000     -72.25640000
H      -42.01570000     -35.00700000     -72.75570000
H      -43.61910000     -34.63060000     -72.65710000
C      -42.58050000     -34.47590000     -70.76180000
H      -42.84650000     -35.49130000     -70.44920000
H      -41.59200000     -34.29130000     -70.33350000
C      -45.80670000     -36.03400000     -70.75920000
H      -44.73280000     -36.23330000     -70.84060000
H      -46.18660000     -36.91480000     -70.17810000
C      -46.01630000     -34.69030000     -70.03510000
C      -47.28670000     -34.33010000     -69.56960000
C      -44.98150000     -33.63530000     -69.77700000
H      -48.19260000     -34.96440000     -69.72130000
C      -45.56130000     -32.58730000     -69.04020000
C      -43.52470000     -33.59410000     -70.03140000
C      -42.99830000     -32.55500000     -69.37620000
S      -47.30330000     -32.79580000     -68.72330000
S      -44.21740000     -31.54570000     -68.55030000
H      -41.92380000     -32.24780000     -69.47090000
