40
Properties=species:S:1:pos:R:3 #=T CELL(abcABC):=T 1.889726e+02=T 90.00000=T Traj:=T positionsangstrom=T Step:=T 0=T Bead:=T pbc="F F F"
C      -43.21750000     -33.29160000     -72.89930000
C      -43.26140000     -34.62370000     -72.54170000
C      -44.39850000     -35.48080000     -72.75700000
C      -45.40670000     -34.94880000     -73.52860000
C      -45.37340000     -33.59550000     -73.94970000
C      -44.38520000     -32.77370000     -73.50330000
H      -42.42060000     -32.67090000     -72.58790000
H      -44.33080000     -36.51360000     -72.35140000
H      -46.20030000     -33.14590000     -74.48940000
H      -44.38670000     -31.74340000     -73.79100000
C      -46.53750000     -35.91270000     -73.93640000
H      -45.92370000     -36.70800000     -74.46200000
H      -47.04500000     -35.51510000     -74.80100000
C      -42.12110000     -35.16280000     -71.66340000
H      -42.16720000     -36.30190000     -71.51820000
H      -41.13740000     -35.09100000     -72.23460000
S      -47.62270000     -36.53000000     -72.62660000
S      -41.73280000     -34.31510000     -70.14050000
C      -48.14460000     -34.89350000     -72.06990000
H      -48.01500000     -34.23630000     -72.92770000
H      -49.21400000     -34.98010000     -71.87110000
C      -43.19370000     -34.49570000     -68.93860000
H      -42.85040000     -33.96110000     -68.01550000
H      -43.15340000     -35.55220000     -68.62670000
C      -44.56000000     -34.12060000     -69.43070000
H      -44.76530000     -34.60880000     -70.37810000
H      -45.31280000     -34.50730000     -68.79340000
C      -47.55330000     -34.28920000     -70.68440000
H      -46.70030000     -34.97710000     -70.48130000
H      -48.24120000     -34.59310000     -69.92150000
C      -47.23400000     -32.82050000     -70.83500000
C      -48.14280000     -31.96560000     -71.32230000
C      -46.02180000     -32.20870000     -70.29200000
H      -49.07480000     -32.18250000     -71.85300000
C      -46.08440000     -30.82790000     -70.41780000
C      -44.82340000     -32.64970000     -69.50210000
C      -44.11660000     -31.57770000     -69.06600000
S      -47.58600000     -30.28560000     -71.12390000
S      -44.68680000     -30.04290000     -69.69050000
H      -43.23080000     -31.62100000     -68.48540000
