40
Properties=species:S:1:pos:R:3 #=T CELL(abcABC):=T 1.889726e+02=T 90.00000=T Traj:=T positionsangstrom=T Step:=T 0=T Bead:=T pbc="F F F"
C      -43.98450000     -31.77290000     -72.87700000
C      -44.43910000     -32.82990000     -73.71760000
C      -45.81750000     -33.15980000     -73.67510000
C      -46.70940000     -32.41620000     -72.94690000
C      -46.29140000     -31.39380000     -72.07130000
C      -44.94170000     -31.06830000     -72.09370000
H      -42.92100000     -31.51840000     -72.90010000
H      -46.12830000     -33.93590000     -74.39020000
H      -46.93780000     -30.76420000     -71.36870000
H      -44.64690000     -30.36870000     -71.27870000
C      -48.12330000     -32.84240000     -72.99010000
H      -48.43130000     -33.36200000     -73.89310000
H      -48.72600000     -31.93150000     -73.08190000
C      -43.59230000     -33.60720000     -74.57150000
H      -44.14750000     -33.98590000     -75.46070000
H      -42.79810000     -32.91100000     -74.93310000
S      -48.84490000     -33.59860000     -71.50420000
S      -42.75460000     -34.99180000     -73.68470000
C      -47.77580000     -35.15440000     -71.69650000
H      -48.45990000     -36.00820000     -71.94890000
H      -47.21160000     -34.99170000     -72.61360000
C      -44.03070000     -35.61860000     -72.46420000
H      -44.22120000     -36.61450000     -72.79000000
H      -44.93230000     -34.99150000     -72.57620000
C      -43.58780000     -35.59970000     -70.97120000
H      -44.08820000     -36.39480000     -70.33080000
H      -42.54850000     -35.84340000     -70.89100000
C      -46.95820000     -35.40440000     -70.43590000
H      -46.17600000     -36.09860000     -70.70760000
H      -47.56710000     -35.86010000     -69.67730000
C      -46.35500000     -34.14880000     -69.73640000
C      -47.12290000     -33.35950000     -68.92040000
C      -44.96760000     -33.79240000     -69.77970000
H      -48.18870000     -33.40340000     -68.81560000
C      -44.75480000     -32.60760000     -69.08260000
C      -43.75250000     -34.24970000     -70.38540000
C      -42.68050000     -33.40690000     -70.16230000
S      -46.20270000     -31.95920000     -68.42470000
S      -43.15880000     -32.02510000     -69.17210000
H      -41.66730000     -33.55050000     -70.47990000
