40
Properties=species:S:1:pos:R:3 #=T CELL(abcABC):=T 1.889726e+02=T 90.00000=T Traj:=T positionsangstrom=T Step:=T 0=T Bead:=T pbc="F F F"
C      -42.09040000     -31.63340000     -69.43090000
C      -42.57380000     -32.74740000     -68.80640000
C      -42.44510000     -33.98910000     -69.58190000
C      -42.09130000     -33.96580000     -70.90780000
C      -41.69280000     -32.73010000     -71.59150000
C      -41.64140000     -31.61910000     -70.74120000
H      -42.17460000     -30.71000000     -68.92050000
H      -42.75110000     -34.90820000     -69.10340000
H      -41.40970000     -32.73300000     -72.66410000
H      -41.45100000     -30.67360000     -71.28290000
C      -42.39400000     -35.24860000     -71.70780000
H      -43.30640000     -35.81590000     -71.28840000
H      -41.62140000     -35.99410000     -71.61590000
C      -43.25000000     -32.71780000     -67.43700000
H      -42.63390000     -33.25160000     -66.69650000
H      -43.36590000     -31.73630000     -67.02670000
S      -42.63140000     -35.02100000     -73.53120000
S      -44.85880000     -33.72730000     -67.42250000
C      -44.47550000     -34.71210000     -73.67060000
H      -44.76900000     -34.92330000     -74.68840000
H      -45.03380000     -35.30580000     -72.99750000
C      -46.13220000     -32.85300000     -68.46100000
H      -46.27320000     -31.79660000     -68.08570000
H      -47.11250000     -33.34750000     -68.21060000
C      -45.96010000     -32.96470000     -69.97520000
H      -45.30100000     -32.18530000     -70.46970000
H      -45.39100000     -33.92950000     -70.15980000
C      -44.78120000     -33.25880000     -73.29090000
H      -44.29190000     -32.50760000     -74.00890000
H      -44.40860000     -33.04570000     -72.33180000
C      -46.33160000     -33.03420000     -73.36580000
C      -46.91750000     -33.11850000     -74.61640000
C      -47.32970000     -33.12750000     -72.30700000
H      -46.48010000     -33.18810000     -75.58110000
C      -48.62040000     -33.13100000     -72.75640000
C      -47.20430000     -33.10120000     -70.82600000
C      -48.45280000     -33.20400000     -70.24040000
S      -48.73730000     -33.00720000     -74.48510000
S      -49.77690000     -33.21960000     -71.41680000
H      -48.62210000     -32.98760000     -69.14800000
