40
Properties=species:S:1:pos:R:3 #=T CELL(abcABC):=T 1.889726e+02=T 90.00000=T Traj:=T positionsangstrom=T Step:=T 0=T Bead:=T pbc="F F F"
C      -44.34440000     -31.58570000     -72.80080000
C      -44.94450000     -32.56510000     -73.64800000
C      -46.31440000     -32.72080000     -73.45250000
C      -47.12750000     -31.98370000     -72.59480000
C      -46.46500000     -31.06570000     -71.75900000
C      -45.08100000     -30.90470000     -71.87830000
H      -43.27450000     -31.39700000     -73.01760000
H      -46.79030000     -33.45370000     -74.09620000
H      -47.07730000     -30.53240000     -71.02070000
H      -44.74170000     -30.06280000     -71.32500000
C      -48.58680000     -32.42170000     -72.50620000
H      -48.82610000     -33.16170000     -73.32610000
H      -49.15440000     -31.51510000     -72.73630000
C      -44.23440000     -33.38430000     -74.62440000
H      -44.83470000     -33.65600000     -75.48720000
H      -43.38570000     -32.82540000     -75.01940000
S      -49.02960000     -33.10560000     -70.83320000
S      -43.42020000     -34.86280000     -73.78040000
C      -48.10830000     -34.69730000     -71.10800000
H      -48.84240000     -35.50680000     -71.28990000
H      -47.47190000     -34.76990000     -71.96220000
C      -44.83530000     -35.64280000     -72.81310000
H      -45.23070000     -36.42880000     -73.42130000
H      -45.57700000     -34.90260000     -72.69240000
C      -44.30610000     -36.11640000     -71.47860000
H      -45.20530000     -36.70730000     -71.04190000
H      -43.51950000     -36.89870000     -71.61360000
C      -47.22640000     -34.96150000     -69.85830000
H      -46.74720000     -35.92100000     -69.84880000
H      -47.85350000     -34.87350000     -68.97900000
C      -46.18420000     -33.88130000     -69.59960000
C      -46.34960000     -32.72350000     -68.87900000
C      -44.76390000     -33.99840000     -70.07090000
H      -47.35360000     -32.32990000     -68.46220000
C      -43.94160000     -32.99880000     -69.49200000
C      -43.87190000     -35.00710000     -70.65980000
C      -42.55240000     -34.74620000     -70.60810000
S      -44.80560000     -31.82510000     -68.69210000
S      -42.20350000     -33.23650000     -69.81520000
H      -41.74840000     -35.35430000     -71.02990000
