40
Properties=species:S:1:pos:R:3 #=T CELL(abcABC):=T 1.889726e+02=T 90.00000=T Traj:=T positionsangstrom=T Step:=T 0=T Bead:=T pbc="F F F"
C      -44.44500000     -31.65500000     -72.80170000
C      -45.18290000     -32.61210000     -73.43730000
C      -46.57130000     -32.71710000     -73.29240000
C      -47.20180000     -31.85060000     -72.38680000
C      -46.49360000     -30.91030000     -71.70150000
C      -45.11100000     -30.77010000     -71.97480000
H      -43.34420000     -31.61230000     -72.94530000
H      -47.08730000     -33.30380000     -73.99700000
H      -46.99250000     -30.17390000     -71.10710000
H      -44.58910000     -29.91040000     -71.50220000
C      -48.71170000     -31.98980000     -72.11620000
H      -49.17380000     -32.45790000     -72.97610000
H      -49.21290000     -30.99470000     -71.89330000
C      -44.48630000     -33.43650000     -74.52230000
H      -45.20740000     -33.58330000     -75.37070000
H      -43.60170000     -32.83330000     -74.80600000
S      -48.99340000     -32.99350000     -70.57210000
S      -43.73060000     -35.11240000     -74.10030000
C      -48.12620000     -34.57140000     -70.83300000
H      -48.71190000     -35.44590000     -70.80400000
H      -47.62850000     -34.48910000     -71.81820000
C      -44.98820000     -35.84550000     -73.01280000
H      -45.51050000     -36.77710000     -73.56460000
H      -45.77610000     -35.08450000     -72.94550000
C      -44.54130000     -36.22060000     -71.63430000
H      -45.39310000     -36.55280000     -71.00820000
H      -43.92930000     -37.06080000     -71.73230000
C      -47.05380000     -34.77580000     -69.71890000
H      -46.65240000     -35.81700000     -69.77370000
H      -47.70790000     -34.67960000     -68.83840000
C      -45.86860000     -33.86420000     -69.54090000
C      -45.90180000     -32.84590000     -68.64500000
C      -44.59540000     -34.05210000     -70.10070000
H      -46.80320000     -32.42140000     -68.17400000
C      -43.74790000     -32.98530000     -69.68070000
C      -43.91780000     -35.06420000     -70.83030000
C      -42.60050000     -34.81750000     -70.98430000
S      -44.44630000     -31.80140000     -68.56410000
S      -42.11890000     -33.33330000     -70.16380000
H      -42.04530000     -35.41210000     -71.58010000
