40
Properties=species:S:1:pos:R:3 #=T CELL(abcABC):=T 1.889726e+02=T 90.00000=T Traj:=T positionsangstrom=T Step:=T 0=T Bead:=T pbc="F F F"
C      -44.12270000     -31.77630000     -72.85370000
C      -44.58510000     -32.68610000     -73.84480000
C      -46.00400000     -32.88290000     -73.91880000
C      -46.81920000     -32.03330000     -73.07070000
C      -46.30800000     -31.14810000     -72.17550000
C      -44.95700000     -31.06520000     -71.98230000
H      -43.07830000     -31.83430000     -72.58570000
H      -46.50860000     -33.68440000     -74.39790000
H      -46.96050000     -30.51710000     -71.58190000
H      -44.54490000     -30.26690000     -71.24950000
C      -48.33720000     -32.24720000     -72.94570000
H      -48.79840000     -32.70150000     -73.84260000
H      -48.91510000     -31.42000000     -72.58900000
C      -43.73380000     -33.63140000     -74.67350000
H      -44.32950000     -34.22680000     -75.39730000
H      -43.04220000     -33.06320000     -75.25270000
S      -48.80410000     -33.57270000     -71.51030000
S      -42.88880000     -35.04470000     -73.74020000
C      -47.64680000     -34.95870000     -71.47340000
H      -48.14620000     -35.90580000     -71.83310000
H      -46.79540000     -34.94690000     -72.19990000
C      -44.11970000     -35.72180000     -72.61480000
H      -44.37510000     -36.72820000     -72.99250000
H      -45.03590000     -35.12780000     -72.69990000
C      -43.69610000     -35.81050000     -71.15220000
H      -44.36840000     -36.52770000     -70.68360000
H      -42.72030000     -36.20040000     -71.09110000
C      -47.05680000     -35.38120000     -70.11210000
H      -46.39790000     -36.29720000     -70.20400000
H      -47.90950000     -35.52480000     -69.45790000
C      -46.31160000     -34.21310000     -69.53210000
C      -46.98180000     -33.29350000     -68.82360000
C      -44.89820000     -33.93350000     -69.70450000
H      -48.05940000     -33.31400000     -68.61020000
C      -44.59750000     -32.72460000     -69.14140000
C      -43.79110000     -34.47950000     -70.40070000
C      -42.70130000     -33.70500000     -70.17100000
S      -45.96530000     -31.99210000     -68.28650000
S      -42.95040000     -32.24870000     -69.27360000
H      -41.69560000     -34.05620000     -70.52160000
