40
Properties=species:S:1:pos:R:3 #=T CELL(abcABC):=T 1.889726e+02=T 90.00000=T Traj:=T positionsangstrom=T Step:=T 0=T Bead:=T pbc="F F F"
C      -44.22240000     -31.92570000     -72.86270000
C      -44.95000000     -32.69860000     -73.69910000
C      -46.30980000     -32.76140000     -73.64960000
C      -47.04830000     -31.98530000     -72.76420000
C      -46.31510000     -31.07170000     -71.96550000
C      -44.94030000     -31.02360000     -72.04760000
H      -43.12150000     -31.90570000     -72.91180000
H      -46.80130000     -33.41630000     -74.34680000
H      -46.87020000     -30.56320000     -71.19690000
H      -44.34740000     -30.34390000     -71.38130000
C      -48.54400000     -32.09350000     -72.68670000
H      -48.85790000     -32.67910000     -73.54590000
H      -49.12450000     -31.13970000     -72.70000000
C      -44.31410000     -33.65270000     -74.72510000
H      -45.11730000     -34.28470000     -75.11950000
H      -43.80780000     -33.20450000     -75.50320000
S      -49.12700000     -33.14290000     -71.27350000
S      -43.12010000     -34.75320000     -73.87160000
C      -47.95320000     -34.56970000     -71.26060000
H      -48.48170000     -35.52580000     -71.48490000
H      -47.16370000     -34.34180000     -72.06720000
C      -44.46280000     -35.75270000     -73.00020000
H      -44.47420000     -36.62820000     -73.50270000
H      -45.38640000     -35.33810000     -73.10470000
C      -44.06960000     -36.06410000     -71.47360000
H      -44.90530000     -36.65550000     -71.10770000
H      -43.17130000     -36.66280000     -71.44620000
C      -47.30140000     -34.90390000     -69.92730000
H      -46.77990000     -35.85440000     -69.98210000
H      -47.99620000     -35.00520000     -69.12930000
C      -46.25020000     -33.90280000     -69.57530000
C      -46.54080000     -32.85950000     -68.78370000
C      -44.78430000     -34.02970000     -69.82550000
H      -47.51560000     -32.54700000     -68.43120000
C      -44.11130000     -32.93310000     -69.26080000
C      -43.86380000     -34.87030000     -70.64500000
C      -42.57880000     -34.51080000     -70.40830000
S      -45.13720000     -31.99210000     -68.20360000
S      -42.39230000     -33.04390000     -69.45240000
H      -41.67800000     -34.88200000     -70.88320000
