40
Properties=species:S:1:pos:R:3 #=T CELL(abcABC):=T 1.889726e+02=T 90.00000=T Traj:=T positionsangstrom=T Step:=T 0=T Bead:=T pbc="F F F"
C      -43.73630000     -32.66700000     -73.12610000
C      -43.32110000     -33.97660000     -72.87390000
C      -44.05030000     -35.08510000     -73.33910000
C      -45.07330000     -34.81330000     -74.24350000
C      -45.44910000     -33.50120000     -74.61290000
C      -44.75030000     -32.42150000     -74.09170000
H      -43.17130000     -31.77690000     -72.76230000
H      -43.73450000     -36.05310000     -73.15440000
H      -46.02970000     -33.38290000     -75.56080000
H      -45.03090000     -31.44270000     -74.38180000
C      -45.94640000     -35.92680000     -74.79350000
H      -45.33100000     -36.77300000     -75.22000000
H      -46.55620000     -35.71750000     -75.70630000
C      -41.99400000     -34.17430000     -72.17110000
H      -41.86380000     -35.20580000     -71.90770000
H      -41.18660000     -33.94690000     -72.86900000
S      -47.17150000     -36.37500000     -73.39560000
S      -41.71660000     -33.08000000     -70.64090000
C      -47.51810000     -34.85820000     -72.61570000
H      -47.32850000     -33.91590000     -73.15690000
H      -48.59790000     -34.86360000     -72.59360000
C      -42.58990000     -34.26960000     -69.50590000
H      -42.23620000     -34.08060000     -68.53250000
H      -42.18500000     -35.24080000     -69.76020000
C      -44.04250000     -34.31710000     -69.76390000
H      -44.16760000     -34.49120000     -70.79410000
H      -44.48940000     -35.12670000     -69.09410000
C      -46.82070000     -34.60920000     -71.27380000
H      -45.72940000     -34.61500000     -71.53640000
H      -47.01200000     -35.42750000     -70.59220000
C      -47.12310000     -33.28480000     -70.66300000
C      -48.24690000     -32.42410000     -70.73460000
C      -46.17360000     -32.63860000     -69.84180000
H      -49.15840000     -32.60070000     -71.34280000
C      -46.68420000     -31.53510000     -69.18920000
C      -44.82000000     -33.00450000     -69.45450000
C      -44.28900000     -32.04170000     -68.64910000
S      -48.24140000     -31.07350000     -69.68580000
S      -45.45080000     -30.74940000     -68.20390000
H      -43.27290000     -32.00150000     -68.33270000
