40
Properties=species:S:1:pos:R:3 #=T CELL(abcABC):=T 1.889726e+02=T 90.00000=T Traj:=T positionsangstrom=T Step:=T 0=T Bead:=T pbc="F F F"
C      -44.35500000     -31.82410000     -72.97930000
C      -45.20790000     -32.69810000     -73.69080000
C      -46.58980000     -32.72460000     -73.30080000
C      -47.11800000     -31.87920000     -72.29000000
C      -46.18250000     -30.96480000     -71.67200000
C      -44.80900000     -30.97620000     -71.99580000
H      -43.26060000     -31.88470000     -73.16340000
H      -47.23530000     -33.56370000     -73.67720000
H      -46.54890000     -30.40470000     -70.80570000
H      -44.06400000     -30.37230000     -71.45160000
C      -48.57950000     -31.86940000     -71.99520000
H      -49.05430000     -32.37760000     -72.84630000
H      -48.88140000     -30.80250000     -71.92380000
C      -44.74530000     -33.57230000     -74.73850000
H      -45.59090000     -33.75190000     -75.36470000
H      -43.93890000     -33.09290000     -75.30400000
S      -48.97820000     -32.70470000     -70.35560000
S      -43.99380000     -35.17720000     -74.25310000
C      -48.18150000     -34.39180000     -70.58720000
H      -49.04470000     -35.10470000     -70.53050000
H      -47.88470000     -34.28560000     -71.66530000
C      -45.25320000     -35.93730000     -73.08040000
H      -45.50900000     -36.86330000     -73.54700000
H      -46.02800000     -35.22860000     -72.99860000
C      -44.51740000     -36.22380000     -71.68260000
H      -45.31230000     -36.62950000     -70.93910000
H      -43.68420000     -36.96660000     -72.00230000
C      -47.11160000     -34.74970000     -69.59370000
H      -46.79410000     -35.76760000     -69.71410000
H      -47.58400000     -34.60100000     -68.60230000
C      -45.88910000     -33.87030000     -69.56670000
C      -45.93390000     -32.76350000     -68.75360000
C      -44.51540000     -34.12380000     -70.02930000
H      -46.89470000     -32.43870000     -68.25230000
C      -43.63310000     -33.08130000     -69.48600000
C      -43.87140000     -35.00100000     -70.99350000
C      -42.59310000     -34.57120000     -71.25250000
S      -44.42470000     -31.96730000     -68.39500000
S      -42.06570000     -33.28310000     -70.22140000
H      -42.01380000     -35.08510000     -71.97730000
