40
Properties=species:S:1:pos:R:3 #=T CELL(abcABC):=T 1.889726e+02=T 90.00000=T Traj:=T positionsangstrom=T Step:=T 0=T Bead:=T pbc="F F F"
C      -45.92230000     -30.17380000     -73.91410000
C      -44.78750000     -31.01200000     -73.97880000
C      -43.90430000     -31.02680000     -72.92370000
C      -44.05860000     -30.23600000     -71.81090000
C      -45.17690000     -29.37560000     -71.69540000
C      -46.09650000     -29.38560000     -72.78050000
H      -46.63220000     -30.41100000     -74.74110000
H      -43.01960000     -31.59600000     -72.99310000
H      -45.23400000     -28.59900000     -70.96210000
H      -46.99060000     -28.81500000     -72.74690000
C      -42.97190000     -30.30370000     -70.70690000
H      -42.84360000     -29.29100000     -70.23140000
H      -42.01980000     -30.67760000     -71.08080000
C      -44.66870000     -31.96720000     -75.19490000
H      -44.81200000     -31.43480000     -76.11040000
H      -43.71390000     -32.56270000     -75.23590000
S      -43.24760000     -31.60620000     -69.33380000
S      -45.92780000     -33.33850000     -75.12470000
C      -45.05940000     -31.60910000     -69.10180000
H      -45.26990000     -31.82590000     -68.03320000
H      -45.47210000     -30.65940000     -69.39490000
C      -45.41980000     -34.17830000     -73.49100000
H      -44.60040000     -33.60450000     -73.05870000
H      -44.97720000     -35.14560000     -73.67180000
C      -46.73180000     -34.45980000     -72.67900000
H      -47.25540000     -33.59370000     -72.29010000
H      -47.41790000     -34.90840000     -73.34160000
C      -45.68270000     -32.68530000     -70.00750000
H      -45.32340000     -32.55340000     -71.07380000
H      -46.76560000     -32.56630000     -70.06540000
C      -45.47880000     -34.06570000     -69.55420000
C      -44.97920000     -34.34840000     -68.31720000
C      -45.92530000     -35.23620000     -70.29990000
H      -44.71500000     -33.60520000     -67.54150000
C      -45.85610000     -36.36960000     -69.53600000
C      -46.54340000     -35.44900000     -71.55240000
C      -47.02360000     -36.79020000     -71.62880000
S      -45.12150000     -36.06600000     -67.99490000
S      -46.67250000     -37.77290000     -70.20730000
H      -47.68430000     -37.12450000     -72.44830000
