40
Properties=species:S:1:pos:R:3 #=T CELL(abcABC):=T 1.889726e+02=T 90.00000=T Traj:=T positionsangstrom=T Step:=T 0=T Bead:=T pbc="F F F"
C      -44.18700000     -32.27830000     -73.60880000
C      -45.41150000     -32.65290000     -74.13610000
C      -46.56010000     -32.21610000     -73.53600000
C      -46.49370000     -31.37010000     -72.39550000
C      -45.24000000     -30.99580000     -71.87080000
C      -44.06590000     -31.45420000     -72.51970000
H      -43.27980000     -32.72700000     -74.01140000
H      -47.50230000     -32.64590000     -73.94580000
H      -45.32430000     -30.47560000     -70.88820000
H      -43.10190000     -31.18080000     -72.21910000
C      -47.67310000     -30.93200000     -71.62150000
H      -48.52080000     -31.30860000     -72.18980000
H      -47.61940000     -29.81420000     -71.60410000
C      -45.43270000     -33.75640000     -75.20460000
H      -46.33840000     -33.62320000     -75.82370000
H      -44.62340000     -33.57800000     -75.93590000
S      -47.53940000     -31.57160000     -69.85400000
S      -45.16070000     -35.40190000     -74.47540000
C      -47.99470000     -33.31000000     -70.18400000
H      -49.05960000     -33.43870000     -70.21570000
H      -47.55610000     -33.68770000     -71.18040000
C      -46.32970000     -35.54490000     -73.03460000
H      -47.27890000     -36.05730000     -73.34360000
H      -46.54740000     -34.47790000     -72.75630000
C      -45.58790000     -36.11630000     -71.79500000
H      -46.37180000     -36.32960000     -71.08130000
H      -45.13550000     -37.04440000     -72.08210000
C      -47.38250000     -34.34230000     -69.18150000
H      -47.60040000     -35.33120000     -69.66750000
H      -48.01180000     -34.42230000     -68.25490000
C      -45.90750000     -34.04500000     -68.91460000
C      -45.46180000     -33.30610000     -67.92540000
C      -44.84000000     -34.35650000     -69.85690000
H      -46.10730000     -32.92660000     -67.19410000
C      -43.68540000     -33.61320000     -69.54040000
C      -44.60260000     -35.17260000     -71.10670000
C      -43.39850000     -34.95700000     -71.68240000
S      -43.79770000     -32.72380000     -68.02880000
S      -42.41050000     -33.88360000     -70.70090000
H      -43.05420000     -35.44630000     -72.56600000
