40
Properties=species:S:1:pos:R:3 #=T CELL(abcABC):=T 1.889726e+02=T 90.00000=T Traj:=T positionsangstrom=T Step:=T 0=T Bead:=T pbc="F F F"
C      -44.17810000     -32.19870000     -73.62290000
C      -45.36150000     -32.88170000     -73.84410000
C      -46.50780000     -32.37480000     -73.26490000
C      -46.45300000     -31.43130000     -72.28390000
C      -45.22930000     -30.87710000     -71.87630000
C      -44.12320000     -31.16330000     -72.67470000
H      -43.22890000     -32.43820000     -74.15060000
H      -47.49720000     -32.73230000     -73.54890000
H      -45.16230000     -30.14180000     -71.08300000
H      -43.18220000     -30.66600000     -72.37330000
C      -47.69960000     -31.01180000     -71.58410000
H      -48.66610000     -31.17870000     -72.13800000
H      -47.73630000     -29.95490000     -71.31150000
C      -45.55150000     -33.87680000     -75.03190000
H      -46.62740000     -33.92500000     -75.32420000
H      -44.96980000     -33.64870000     -75.92850000
S      -48.08870000     -31.79190000     -69.92560000
S      -45.01100000     -35.59110000     -74.54730000
C      -48.06030000     -33.62690000     -70.41370000
H      -49.10420000     -33.99500000     -70.70170000
H      -47.49010000     -33.59940000     -71.31090000
C      -45.94790000     -36.01990000     -73.02310000
H      -46.47370000     -36.99880000     -73.18210000
H      -46.77500000     -35.35070000     -72.86610000
C      -45.14420000     -36.13260000     -71.74010000
H      -45.87920000     -36.48540000     -71.06710000
H      -44.44430000     -36.90700000     -71.88390000
C      -47.33660000     -34.55580000     -69.36710000
H      -47.24490000     -35.55130000     -69.85020000
H      -48.00650000     -34.63800000     -68.48100000
C      -45.94080000     -34.02610000     -69.07470000
C      -45.63860000     -33.22650000     -67.98980000
C      -44.79790000     -34.11640000     -70.05400000
H      -46.28240000     -32.98850000     -67.11700000
C      -43.70600000     -33.35420000     -69.52300000
C      -44.40250000     -34.91830000     -71.24040000
C      -43.07350000     -34.69870000     -71.57480000
S      -43.99090000     -32.57600000     -68.02310000
S      -42.28620000     -33.53620000     -70.54730000
H      -42.49260000     -35.19190000     -72.32200000
