40
Properties=species:S:1:pos:R:3 #=T CELL(abcABC):=T 1.889726e+02=T 90.00000=T Traj:=T positionsangstrom=T Step:=T 0=T Bead:=T pbc="F F F"
C      -44.13190000     -34.82960000     -74.69080000
C      -45.20230000     -33.88070000     -74.55100000
C      -46.38240000     -34.17500000     -73.83290000
C      -46.60320000     -35.48300000     -73.44950000
C      -45.58450000     -36.45590000     -73.61260000
C      -44.35630000     -36.12200000     -74.18580000
H      -43.25770000     -34.54380000     -75.10170000
H      -47.20180000     -33.47770000     -73.75420000
H      -45.85140000     -37.47060000     -73.41220000
H      -43.53040000     -36.81900000     -74.28240000
C      -47.95070000     -35.91840000     -72.91000000
H      -47.82900000     -36.69770000     -72.07020000
H      -48.57530000     -36.29030000     -73.70880000
C      -44.94060000     -32.46960000     -75.06320000
H      -44.82110000     -32.40570000     -76.13140000
H      -45.67250000     -31.81690000     -74.76890000
S      -48.95100000     -34.59830000     -72.15740000
S      -43.39680000     -31.83580000     -74.44870000
C      -48.12630000     -34.38980000     -70.50780000
H      -48.81060000     -33.88090000     -69.82480000
H      -47.94180000     -35.35730000     -70.02400000
C      -43.43210000     -32.28250000     -72.64440000
H      -42.40500000     -32.32140000     -72.33780000
H      -43.85840000     -33.30730000     -72.52700000
C      -44.32260000     -31.40920000     -71.69290000
H      -44.13930000     -30.25980000     -71.86330000
H      -45.33890000     -31.67230000     -72.01570000
C      -46.82610000     -33.66640000     -70.67650000
H      -46.91390000     -32.76700000     -71.29670000
H      -46.17670000     -34.28280000     -71.31170000
C      -46.09940000     -33.37120000     -69.36630000
C      -46.50400000     -33.77120000     -68.10200000
C      -44.84270000     -32.59150000     -69.30230000
H      -47.24650000     -34.50380000     -67.83220000
C      -44.29970000     -32.54250000     -67.99560000
C      -44.08700000     -31.73240000     -70.21860000
C      -43.02530000     -31.18450000     -69.54880000
S      -45.32330000     -33.28600000     -66.79950000
S      -42.91520000     -31.54380000     -67.83640000
H      -42.23390000     -30.57140000     -70.02250000
