40
Properties=species:S:1:pos:R:3 #=T CELL(abcABC):=T 1.889726e+02=T 90.00000=T Traj:=T positionsangstrom=T Step:=T 0=T Bead:=T pbc="F F F"
C      -43.93610000     -30.12540000     -69.24520000
C      -44.50750000     -31.20330000     -68.61620000
C      -43.88000000     -32.51520000     -68.73280000
C      -42.76610000     -32.70140000     -69.54060000
C      -42.26420000     -31.59220000     -70.24590000
C      -42.81710000     -30.33440000     -70.08990000
H      -44.31850000     -29.12590000     -69.05370000
H      -44.25100000     -33.32830000     -68.10000000
H      -41.36510000     -31.58740000     -70.86700000
H      -42.33340000     -29.50220000     -70.69010000
C      -42.10840000     -34.08030000     -69.56570000
H      -42.83330000     -34.86180000     -69.24430000
H      -41.27480000     -33.99950000     -68.93160000
C      -45.66640000     -31.07170000     -67.62180000
H      -45.37450000     -31.29000000     -66.61550000
H      -46.03470000     -30.05750000     -67.52050000
S      -41.44470000     -34.65990000     -71.26240000
S      -46.98670000     -32.35920000     -67.77490000
C      -43.00720000     -35.08960000     -72.15270000
H      -42.70250000     -35.44130000     -73.17430000
H      -43.48690000     -35.89050000     -71.58970000
C      -47.67100000     -32.36730000     -69.52770000
H      -47.88100000     -31.26160000     -69.83740000
H      -48.56930000     -32.98000000     -69.43940000
C      -46.71120000     -33.02300000     -70.61510000
H      -46.00380000     -32.23630000     -70.95280000
H      -46.12920000     -33.78370000     -70.11270000
C      -43.91130000     -33.95770000     -72.35520000
H      -43.42630000     -33.10860000     -72.81730000
H      -44.42300000     -33.68790000     -71.45650000
C      -45.14370000     -34.32910000     -73.24300000
C      -44.92790000     -34.86080000     -74.46640000
C      -46.54020000     -34.16030000     -72.97520000
H      -43.98810000     -35.19340000     -74.86160000
C      -47.36280000     -34.53940000     -74.04670000
C      -47.36450000     -33.63760000     -71.86620000
C      -48.70260000     -33.77520000     -72.11570000
S      -46.46110000     -35.23560000     -75.35650000
S      -49.03690000     -34.39930000     -73.70370000
H      -49.57540000     -33.48780000     -71.58790000
