40
Properties=species:S:1:pos:R:3 #=T CELL(abcABC):=T 1.889726e+02=T 90.00000=T Traj:=T positionsangstrom=T Step:=T 0=T Bead:=T pbc="F F F"
C      -44.45590000     -30.22820000     -69.88850000
C      -44.61900000     -31.07200000     -68.77080000
C      -43.71610000     -32.14770000     -68.58710000
C      -42.66990000     -32.39170000     -69.52780000
C      -42.57980000     -31.55320000     -70.65690000
C      -43.42990000     -30.45890000     -70.83370000
H      -45.10300000     -29.37130000     -70.05180000
H      -43.93580000     -32.76010000     -67.73500000
H      -41.63700000     -31.69430000     -71.26950000
H      -43.47030000     -29.87860000     -71.68030000
C      -41.68850000     -33.52270000     -69.32400000
H      -41.88790000     -34.08680000     -68.36640000
H      -40.70990000     -33.13500000     -69.24490000
C      -45.80920000     -30.82600000     -67.86930000
H      -45.50130000     -30.71240000     -66.78620000
H      -46.33820000     -29.82150000     -68.10010000
S      -41.64700000     -34.76180000     -70.74690000
S      -47.05950000     -32.12150000     -67.99790000
C      -43.42340000     -34.88620000     -71.44370000
H      -43.53990000     -35.93710000     -71.68080000
H      -44.16910000     -34.77030000     -70.65620000
C      -47.48790000     -32.32710000     -69.78800000
H      -47.47150000     -31.35820000     -70.36060000
H      -48.52710000     -32.64310000     -69.82290000
C      -46.61510000     -33.35600000     -70.47730000
H      -45.60630000     -32.94490000     -70.54710000
H      -46.50660000     -34.32970000     -69.95610000
C      -43.70350000     -33.95660000     -72.59070000
H      -42.80520000     -34.04100000     -73.19790000
H      -43.81980000     -32.93510000     -72.24030000
C      -44.96260000     -34.40540000     -73.35880000
C      -44.84790000     -34.92910000     -74.58670000
C      -46.38610000     -34.30240000     -72.90010000
H      -43.90000000     -35.16150000     -75.02320000
C      -47.19640000     -34.81100000     -73.89270000
C      -47.13630000     -33.78990000     -71.79000000
C      -48.48070000     -33.91170000     -71.99130000
S      -46.35550000     -35.41150000     -75.33220000
S      -48.88930000     -34.59220000     -73.51270000
H      -49.30170000     -33.64520000     -71.32820000
