40
Properties=species:S:1:pos:R:3 #=T CELL(abcABC):=T 1.889726e+02=T 90.00000=T Traj:=T positionsangstrom=T Step:=T 0=T Bead:=T pbc="F F F"
C      -44.17870000     -30.14640000     -70.02970000
C      -44.54900000     -31.20010000     -69.11540000
C      -43.75020000     -32.27810000     -69.00530000
C      -42.49540000     -32.36010000     -69.62020000
C      -42.04750000     -31.27260000     -70.35620000
C      -42.94480000     -30.20340000     -70.63130000
H      -44.77520000     -29.32660000     -70.30970000
H      -44.15770000     -33.12790000     -68.42490000
H      -41.02710000     -31.26250000     -70.73930000
H      -42.76600000     -29.29230000     -71.25210000
C      -41.67140000     -33.59680000     -69.40180000
H      -41.98640000     -33.97980000     -68.31120000
H      -40.62410000     -33.30760000     -69.34610000
C      -45.81830000     -30.96250000     -68.31540000
H      -45.56460000     -30.46560000     -67.41200000
H      -46.52290000     -30.33690000     -68.89980000
S      -41.87620000     -34.95890000     -70.63970000
S      -46.76830000     -32.50890000     -67.82420000
C      -43.58370000     -34.90020000     -71.26170000
H      -43.70860000     -35.83560000     -71.72220000
H      -44.30680000     -34.78030000     -70.45870000
C      -47.69430000     -32.89250000     -69.36650000
H      -48.71290000     -32.37170000     -69.55140000
H      -47.86420000     -33.98380000     -69.34850000
C      -46.76680000     -32.78750000     -70.65840000
H      -46.66060000     -31.63260000     -70.86400000
H      -45.82960000     -33.25190000     -70.39570000
C      -43.84740000     -33.87850000     -72.41580000
H      -42.98350000     -33.87290000     -73.10890000
H      -43.95040000     -32.88840000     -71.92290000
C      -45.09710000     -34.23220000     -73.25940000
C      -44.89580000     -35.08340000     -74.33550000
C      -46.50720000     -33.99320000     -73.01470000
H      -43.95860000     -35.54810000     -74.62060000
C      -47.30000000     -34.55880000     -73.96940000
C      -47.29690000     -33.47990000     -71.93640000
C      -48.63230000     -33.69270000     -72.22280000
S      -46.36140000     -35.43860000     -75.23700000
S      -48.97790000     -34.50930000     -73.64250000
H      -49.36300000     -33.31150000     -71.58400000
